/*--------------------------------*- C++ -*----------------------------------*\
| =========                 |                                                 |
| \\      /  F ield         | OpenFOAM: The Open Source CFD Toolbox           |
|  \\    /   O peration     | Version:  2.2.0                                 |
|   \\  /    A nd           | Web:      www.OpenFOAM.org                      |
|    \\/     M anipulation  |                                                 |
\*---------------------------------------------------------------------------*/
FoamFile
{
    version     2.0;
    format      ascii;
    class       volScalarField;
    location    "constant/polyMesh";
    object      Volumes;
}
// * * * * * * * * * * * * * * * * * * * * * * * * * * * * * * * * * * * * * //

dimensions      [0 3 0 0 0 0 0];

internalField   nonuniform List<scalar> 
5120
(
9.63283e-05
0.000104955
0.000113581
0.000122208
0.000130834
0.00013946
0.000148087
0.000156713
0.00016534
0.000173966
0.000182593
0.000191219
0.000199845
0.000208472
0.000217098
0.000225725
0.000234351
0.000242978
0.000251604
0.00026023
0.000268857
0.000277483
0.00028611
0.000294736
0.000303363
0.000311989
0.000320615
0.000329242
0.000337868
0.000346495
0.000355121
0.000363748
9.63283e-05
0.000104955
0.000113581
0.000122208
0.000130834
0.00013946
0.000148087
0.000156713
0.00016534
0.000173966
0.000182593
0.000191219
0.000199845
0.000208472
0.000217098
0.000225725
0.000234351
0.000242978
0.000251604
0.00026023
0.000268857
0.000277483
0.00028611
0.000294736
0.000303363
0.000311989
0.000320615
0.000329242
0.000337868
0.000346495
0.000355121
0.000363748
9.63283e-05
0.000104955
0.000113581
0.000122208
0.000130834
0.00013946
0.000148087
0.000156713
0.00016534
0.000173966
0.000182593
0.000191219
0.000199845
0.000208472
0.000217098
0.000225725
0.000234351
0.000242978
0.000251604
0.00026023
0.000268857
0.000277483
0.00028611
0.000294736
0.000303363
0.000311989
0.000320615
0.000329242
0.000337868
0.000346495
0.000355121
0.000363748
9.63284e-05
0.000104955
0.000113581
0.000122208
0.000130834
0.00013946
0.000148087
0.000156713
0.00016534
0.000173966
0.000182593
0.000191219
0.000199845
0.000208472
0.000217098
0.000225725
0.000234351
0.000242978
0.000251604
0.00026023
0.000268857
0.000277483
0.00028611
0.000294736
0.000303363
0.000311989
0.000320615
0.000329242
0.000337868
0.000346495
0.000355121
0.000363748
9.63284e-05
0.000104955
0.000113581
0.000122208
0.000130834
0.00013946
0.000148087
0.000156713
0.00016534
0.000173966
0.000182593
0.000191219
0.000199845
0.000208472
0.000217098
0.000225725
0.000234351
0.000242978
0.000251604
0.00026023
0.000268857
0.000277483
0.00028611
0.000294736
0.000303363
0.000311989
0.000320615
0.000329242
0.000337868
0.000346495
0.000355121
0.000363748
9.63284e-05
0.000104955
0.000113581
0.000122208
0.000130834
0.00013946
0.000148087
0.000156713
0.00016534
0.000173966
0.000182593
0.000191219
0.000199845
0.000208472
0.000217098
0.000225725
0.000234351
0.000242978
0.000251604
0.00026023
0.000268857
0.000277483
0.00028611
0.000294736
0.000303363
0.000311989
0.000320615
0.000329242
0.000337868
0.000346495
0.000355121
0.000363748
9.63284e-05
0.000104955
0.000113581
0.000122208
0.000130834
0.00013946
0.000148087
0.000156713
0.00016534
0.000173966
0.000182593
0.000191219
0.000199845
0.000208472
0.000217098
0.000225725
0.000234351
0.000242978
0.000251604
0.00026023
0.000268857
0.000277483
0.00028611
0.000294736
0.000303363
0.000311989
0.000320615
0.000329242
0.000337868
0.000346495
0.000355121
0.000363748
9.63284e-05
0.000104955
0.000113581
0.000122208
0.000130834
0.000139461
0.000148087
0.000156713
0.00016534
0.000173966
0.000182593
0.000191219
0.000199845
0.000208472
0.000217098
0.000225725
0.000234351
0.000242978
0.000251604
0.00026023
0.000268857
0.000277483
0.00028611
0.000294736
0.000303363
0.000311989
0.000320615
0.000329242
0.000337868
0.000346495
0.000355121
0.000363748
9.63284e-05
0.000104955
0.000113581
0.000122208
0.000130834
0.000139461
0.000148087
0.000156713
0.00016534
0.000173966
0.000182593
0.000191219
0.000199846
0.000208472
0.000217098
0.000225725
0.000234351
0.000242978
0.000251604
0.000260231
0.000268857
0.000277483
0.00028611
0.000294736
0.000303363
0.000311989
0.000320616
0.000329242
0.000337868
0.000346495
0.000355121
0.000363748
9.63284e-05
0.000104955
0.000113581
0.000122208
0.000130834
0.000139461
0.000148087
0.000156713
0.00016534
0.000173966
0.000182593
0.000191219
0.000199846
0.000208472
0.000217098
0.000225725
0.000234351
0.000242978
0.000251604
0.000260231
0.000268857
0.000277483
0.00028611
0.000294736
0.000303363
0.000311989
0.000320616
0.000329242
0.000337868
0.000346495
0.000355121
0.000363748
9.63284e-05
0.000104955
0.000113581
0.000122208
0.000130834
0.000139461
0.000148087
0.000156713
0.00016534
0.000173966
0.000182593
0.000191219
0.000199846
0.000208472
0.000217098
0.000225725
0.000234351
0.000242978
0.000251604
0.000260231
0.000268857
0.000277483
0.00028611
0.000294736
0.000303363
0.000311989
0.000320616
0.000329242
0.000337868
0.000346495
0.000355121
0.000363748
9.63284e-05
0.000104955
0.000113581
0.000122208
0.000130834
0.000139461
0.000148087
0.000156713
0.00016534
0.000173966
0.000182593
0.000191219
0.000199846
0.000208472
0.000217098
0.000225725
0.000234351
0.000242978
0.000251604
0.000260231
0.000268857
0.000277483
0.00028611
0.000294736
0.000303363
0.000311989
0.000320616
0.000329242
0.000337868
0.000346495
0.000355121
0.000363748
9.63284e-05
0.000104955
0.000113581
0.000122208
0.000130834
0.000139461
0.000148087
0.000156713
0.00016534
0.000173966
0.000182593
0.000191219
0.000199846
0.000208472
0.000217098
0.000225725
0.000234351
0.000242978
0.000251604
0.000260231
0.000268857
0.000277483
0.00028611
0.000294736
0.000303363
0.000311989
0.000320616
0.000329242
0.000337868
0.000346495
0.000355121
0.000363748
9.63284e-05
0.000104955
0.000113581
0.000122208
0.000130834
0.000139461
0.000148087
0.000156713
0.00016534
0.000173966
0.000182593
0.000191219
0.000199846
0.000208472
0.000217098
0.000225725
0.000234351
0.000242978
0.000251604
0.000260231
0.000268857
0.000277483
0.00028611
0.000294736
0.000303363
0.000311989
0.000320616
0.000329242
0.000337868
0.000346495
0.000355121
0.000363748
9.63284e-05
0.000104955
0.000113581
0.000122208
0.000130834
0.000139461
0.000148087
0.000156713
0.00016534
0.000173966
0.000182593
0.000191219
0.000199846
0.000208472
0.000217098
0.000225725
0.000234351
0.000242978
0.000251604
0.000260231
0.000268857
0.000277483
0.00028611
0.000294736
0.000303363
0.000311989
0.000320616
0.000329242
0.000337868
0.000346495
0.000355121
0.000363748
9.63284e-05
0.000104955
0.000113581
0.000122208
0.000130834
0.000139461
0.000148087
0.000156713
0.00016534
0.000173966
0.000182593
0.000191219
0.000199846
0.000208472
0.000217098
0.000225725
0.000234351
0.000242978
0.000251604
0.000260231
0.000268857
0.000277483
0.00028611
0.000294736
0.000303363
0.000311989
0.000320616
0.000329242
0.000337868
0.000346495
0.000355121
0.000363748
9.63284e-05
0.000104955
0.000113581
0.000122208
0.000130834
0.000139461
0.000148087
0.000156713
0.00016534
0.000173966
0.000182593
0.000191219
0.000199846
0.000208472
0.000217098
0.000225725
0.000234351
0.000242978
0.000251604
0.000260231
0.000268857
0.000277483
0.00028611
0.000294736
0.000303363
0.000311989
0.000320616
0.000329242
0.000337868
0.000346495
0.000355121
0.000363748
9.63284e-05
0.000104955
0.000113581
0.000122208
0.000130834
0.000139461
0.000148087
0.000156713
0.00016534
0.000173966
0.000182593
0.000191219
0.000199846
0.000208472
0.000217098
0.000225725
0.000234351
0.000242978
0.000251604
0.000260231
0.000268857
0.000277483
0.00028611
0.000294736
0.000303363
0.000311989
0.000320616
0.000329242
0.000337868
0.000346495
0.000355121
0.000363748
9.63284e-05
0.000104955
0.000113581
0.000122208
0.000130834
0.000139461
0.000148087
0.000156713
0.00016534
0.000173966
0.000182593
0.000191219
0.000199846
0.000208472
0.000217098
0.000225725
0.000234351
0.000242978
0.000251604
0.000260231
0.000268857
0.000277483
0.00028611
0.000294736
0.000303363
0.000311989
0.000320616
0.000329242
0.000337868
0.000346495
0.000355121
0.000363748
9.63284e-05
0.000104955
0.000113581
0.000122208
0.000130834
0.000139461
0.000148087
0.000156713
0.00016534
0.000173966
0.000182593
0.000191219
0.000199846
0.000208472
0.000217098
0.000225725
0.000234351
0.000242978
0.000251604
0.000260231
0.000268857
0.000277483
0.00028611
0.000294736
0.000303363
0.000311989
0.000320616
0.000329242
0.000337868
0.000346495
0.000355121
0.000363748
9.63284e-05
0.000104955
0.000113581
0.000122208
0.000130834
0.000139461
0.000148087
0.000156713
0.00016534
0.000173966
0.000182593
0.000191219
0.000199846
0.000208472
0.000217098
0.000225725
0.000234351
0.000242978
0.000251604
0.000260231
0.000268857
0.000277483
0.00028611
0.000294736
0.000303363
0.000311989
0.000320616
0.000329242
0.000337868
0.000346495
0.000355121
0.000363748
9.63284e-05
0.000104955
0.000113581
0.000122208
0.000130834
0.000139461
0.000148087
0.000156713
0.00016534
0.000173966
0.000182593
0.000191219
0.000199846
0.000208472
0.000217098
0.000225725
0.000234351
0.000242978
0.000251604
0.000260231
0.000268857
0.000277483
0.00028611
0.000294736
0.000303363
0.000311989
0.000320616
0.000329242
0.000337868
0.000346495
0.000355121
0.000363748
9.63284e-05
0.000104955
0.000113581
0.000122208
0.000130834
0.000139461
0.000148087
0.000156713
0.00016534
0.000173966
0.000182593
0.000191219
0.000199846
0.000208472
0.000217098
0.000225725
0.000234351
0.000242978
0.000251604
0.000260231
0.000268857
0.000277483
0.00028611
0.000294736
0.000303363
0.000311989
0.000320616
0.000329242
0.000337868
0.000346495
0.000355121
0.000363748
9.63284e-05
0.000104955
0.000113581
0.000122208
0.000130834
0.000139461
0.000148087
0.000156713
0.00016534
0.000173966
0.000182593
0.000191219
0.000199846
0.000208472
0.000217098
0.000225725
0.000234351
0.000242978
0.000251604
0.000260231
0.000268857
0.000277483
0.00028611
0.000294736
0.000303363
0.000311989
0.000320616
0.000329242
0.000337868
0.000346495
0.000355121
0.000363748
9.63284e-05
0.000104955
0.000113581
0.000122208
0.000130834
0.000139461
0.000148087
0.000156713
0.00016534
0.000173966
0.000182593
0.000191219
0.000199846
0.000208472
0.000217098
0.000225725
0.000234351
0.000242978
0.000251604
0.000260231
0.000268857
0.000277483
0.00028611
0.000294736
0.000303363
0.000311989
0.000320616
0.000329242
0.000337868
0.000346495
0.000355121
0.000363748
9.63284e-05
0.000104955
0.000113581
0.000122208
0.000130834
0.000139461
0.000148087
0.000156713
0.00016534
0.000173966
0.000182593
0.000191219
0.000199846
0.000208472
0.000217098
0.000225725
0.000234351
0.000242978
0.000251604
0.000260231
0.000268857
0.000277483
0.00028611
0.000294736
0.000303363
0.000311989
0.000320616
0.000329242
0.000337868
0.000346495
0.000355121
0.000363748
9.63284e-05
0.000104955
0.000113581
0.000122208
0.000130834
0.000139461
0.000148087
0.000156713
0.00016534
0.000173966
0.000182593
0.000191219
0.000199846
0.000208472
0.000217098
0.000225725
0.000234351
0.000242978
0.000251604
0.000260231
0.000268857
0.000277483
0.00028611
0.000294736
0.000303363
0.000311989
0.000320616
0.000329242
0.000337868
0.000346495
0.000355121
0.000363748
9.63284e-05
0.000104955
0.000113581
0.000122208
0.000130834
0.000139461
0.000148087
0.000156713
0.00016534
0.000173966
0.000182593
0.000191219
0.000199846
0.000208472
0.000217098
0.000225725
0.000234351
0.000242978
0.000251604
0.000260231
0.000268857
0.000277483
0.00028611
0.000294736
0.000303363
0.000311989
0.000320616
0.000329242
0.000337868
0.000346495
0.000355121
0.000363748
9.63284e-05
0.000104955
0.000113581
0.000122208
0.000130834
0.000139461
0.000148087
0.000156713
0.00016534
0.000173966
0.000182593
0.000191219
0.000199846
0.000208472
0.000217098
0.000225725
0.000234351
0.000242978
0.000251604
0.000260231
0.000268857
0.000277483
0.00028611
0.000294736
0.000303363
0.000311989
0.000320616
0.000329242
0.000337868
0.000346495
0.000355121
0.000363748
9.63284e-05
0.000104955
0.000113581
0.000122208
0.000130834
0.000139461
0.000148087
0.000156713
0.00016534
0.000173966
0.000182593
0.000191219
0.000199846
0.000208472
0.000217098
0.000225725
0.000234351
0.000242978
0.000251604
0.000260231
0.000268857
0.000277483
0.00028611
0.000294736
0.000303363
0.000311989
0.000320616
0.000329242
0.000337868
0.000346495
0.000355121
0.000363748
9.63284e-05
0.000104955
0.000113581
0.000122208
0.000130834
0.000139461
0.000148087
0.000156713
0.00016534
0.000173966
0.000182593
0.000191219
0.000199846
0.000208472
0.000217098
0.000225725
0.000234351
0.000242978
0.000251604
0.000260231
0.000268857
0.000277483
0.00028611
0.000294736
0.000303363
0.000311989
0.000320616
0.000329242
0.000337868
0.000346495
0.000355121
0.000363748
9.63284e-05
0.000104955
0.000113581
0.000122208
0.000130834
0.000139461
0.000148087
0.000156713
0.00016534
0.000173966
0.000182593
0.000191219
0.000199846
0.000208472
0.000217098
0.000225725
0.000234351
0.000242978
0.000251604
0.000260231
0.000268857
0.000277483
0.00028611
0.000294736
0.000303363
0.000311989
0.000320616
0.000329242
0.000337868
0.000346495
0.000355121
0.000363748
9.63284e-05
0.000104955
0.000113581
0.000122208
0.000130834
0.000139461
0.000148087
0.000156713
0.00016534
0.000173966
0.000182593
0.000191219
0.000199845
0.000208472
0.000217098
0.000225725
0.000234351
0.000242978
0.000251604
0.00026023
0.000268857
0.000277483
0.00028611
0.000294736
0.000303363
0.000311989
0.000320615
0.000329242
0.000337868
0.000346495
0.000355121
0.000363748
9.63284e-05
0.000104955
0.000113581
0.000122208
0.000130834
0.00013946
0.000148087
0.000156713
0.00016534
0.000173966
0.000182593
0.000191219
0.000199845
0.000208472
0.000217098
0.000225725
0.000234351
0.000242978
0.000251604
0.00026023
0.000268857
0.000277483
0.00028611
0.000294736
0.000303363
0.000311989
0.000320615
0.000329242
0.000337868
0.000346495
0.000355121
0.000363748
9.63284e-05
0.000104955
0.000113581
0.000122208
0.000130834
0.00013946
0.000148087
0.000156713
0.00016534
0.000173966
0.000182593
0.000191219
0.000199845
0.000208472
0.000217098
0.000225725
0.000234351
0.000242978
0.000251604
0.00026023
0.000268857
0.000277483
0.00028611
0.000294736
0.000303363
0.000311989
0.000320615
0.000329242
0.000337868
0.000346495
0.000355121
0.000363748
9.63284e-05
0.000104955
0.000113581
0.000122208
0.000130834
0.00013946
0.000148087
0.000156713
0.00016534
0.000173966
0.000182593
0.000191219
0.000199845
0.000208472
0.000217098
0.000225725
0.000234351
0.000242978
0.000251604
0.00026023
0.000268857
0.000277483
0.00028611
0.000294736
0.000303363
0.000311989
0.000320615
0.000329242
0.000337868
0.000346495
0.000355121
0.000363748
9.63284e-05
0.000104955
0.000113581
0.000122208
0.000130834
0.00013946
0.000148087
0.000156713
0.00016534
0.000173966
0.000182593
0.000191219
0.000199845
0.000208472
0.000217098
0.000225725
0.000234351
0.000242978
0.000251604
0.00026023
0.000268857
0.000277483
0.00028611
0.000294736
0.000303363
0.000311989
0.000320615
0.000329242
0.000337868
0.000346495
0.000355121
0.000363748
9.63283e-05
0.000104955
0.000113581
0.000122208
0.000130834
0.00013946
0.000148087
0.000156713
0.00016534
0.000173966
0.000182593
0.000191219
0.000199845
0.000208472
0.000217098
0.000225725
0.000234351
0.000242978
0.000251604
0.00026023
0.000268857
0.000277483
0.00028611
0.000294736
0.000303363
0.000311989
0.000320615
0.000329242
0.000337868
0.000346495
0.000355121
0.000363748
9.63283e-05
0.000104955
0.000113581
0.000122208
0.000130834
0.00013946
0.000148087
0.000156713
0.00016534
0.000173966
0.000182593
0.000191219
0.000199845
0.000208472
0.000217098
0.000225725
0.000234351
0.000242978
0.000251604
0.00026023
0.000268857
0.000277483
0.00028611
0.000294736
0.000303363
0.000311989
0.000320615
0.000329242
0.000337868
0.000346495
0.000355121
0.000363748
9.63283e-05
0.000104955
0.000113581
0.000122208
0.000130834
0.00013946
0.000148087
0.000156713
0.00016534
0.000173966
0.000182593
0.000191219
0.000199845
0.000208472
0.000217098
0.000225725
0.000234351
0.000242978
0.000251604
0.00026023
0.000268857
0.000277483
0.00028611
0.000294736
0.000303363
0.000311989
0.000320615
0.000329242
0.000337868
0.000346495
0.000355121
0.000363748
9.63283e-05
0.000104955
0.000113581
0.000122208
0.000130834
0.00013946
0.000148087
0.000156713
0.00016534
0.000173966
0.000182593
0.000191219
0.000199845
0.000208472
0.000217098
0.000225725
0.000234351
0.000242978
0.000251604
0.00026023
0.000268857
0.000277483
0.00028611
0.000294736
0.000303363
0.000311989
0.000320615
0.000329242
0.000337868
0.000346495
0.000355121
0.000363748
9.63283e-05
0.000104955
0.000113581
0.000122208
0.000130834
0.00013946
0.000148087
0.000156713
0.00016534
0.000173966
0.000182593
0.000191219
0.000199845
0.000208472
0.000217098
0.000225725
0.000234351
0.000242978
0.000251604
0.00026023
0.000268857
0.000277483
0.00028611
0.000294736
0.000303363
0.000311989
0.000320615
0.000329242
0.000337868
0.000346495
0.000355121
0.000363748
9.63283e-05
0.000104955
0.000113581
0.000122208
0.000130834
0.00013946
0.000148087
0.000156713
0.00016534
0.000173966
0.000182593
0.000191219
0.000199845
0.000208472
0.000217098
0.000225725
0.000234351
0.000242978
0.000251604
0.00026023
0.000268857
0.000277483
0.00028611
0.000294736
0.000303363
0.000311989
0.000320615
0.000329242
0.000337868
0.000346495
0.000355121
0.000363748
9.63284e-05
0.000104955
0.000113581
0.000122208
0.000130834
0.00013946
0.000148087
0.000156713
0.00016534
0.000173966
0.000182593
0.000191219
0.000199845
0.000208472
0.000217098
0.000225725
0.000234351
0.000242978
0.000251604
0.00026023
0.000268857
0.000277483
0.00028611
0.000294736
0.000303363
0.000311989
0.000320615
0.000329242
0.000337868
0.000346495
0.000355121
0.000363748
9.63284e-05
0.000104955
0.000113581
0.000122208
0.000130834
0.00013946
0.000148087
0.000156713
0.00016534
0.000173966
0.000182593
0.000191219
0.000199845
0.000208472
0.000217098
0.000225725
0.000234351
0.000242978
0.000251604
0.00026023
0.000268857
0.000277483
0.00028611
0.000294736
0.000303363
0.000311989
0.000320615
0.000329242
0.000337868
0.000346495
0.000355121
0.000363748
9.63284e-05
0.000104955
0.000113581
0.000122208
0.000130834
0.00013946
0.000148087
0.000156713
0.00016534
0.000173966
0.000182593
0.000191219
0.000199845
0.000208472
0.000217098
0.000225725
0.000234351
0.000242978
0.000251604
0.00026023
0.000268857
0.000277483
0.00028611
0.000294736
0.000303363
0.000311989
0.000320615
0.000329242
0.000337868
0.000346495
0.000355121
0.000363748
9.63284e-05
0.000104955
0.000113581
0.000122208
0.000130834
0.00013946
0.000148087
0.000156713
0.00016534
0.000173966
0.000182593
0.000191219
0.000199845
0.000208472
0.000217098
0.000225725
0.000234351
0.000242978
0.000251604
0.00026023
0.000268857
0.000277483
0.00028611
0.000294736
0.000303363
0.000311989
0.000320615
0.000329242
0.000337868
0.000346495
0.000355121
0.000363748
9.63284e-05
0.000104955
0.000113581
0.000122208
0.000130834
0.000139461
0.000148087
0.000156713
0.00016534
0.000173966
0.000182593
0.000191219
0.000199845
0.000208472
0.000217098
0.000225725
0.000234351
0.000242978
0.000251604
0.00026023
0.000268857
0.000277483
0.00028611
0.000294736
0.000303363
0.000311989
0.000320615
0.000329242
0.000337868
0.000346495
0.000355121
0.000363748
9.63284e-05
0.000104955
0.000113581
0.000122208
0.000130834
0.000139461
0.000148087
0.000156713
0.00016534
0.000173966
0.000182593
0.000191219
0.000199846
0.000208472
0.000217098
0.000225725
0.000234351
0.000242978
0.000251604
0.000260231
0.000268857
0.000277483
0.00028611
0.000294736
0.000303363
0.000311989
0.000320616
0.000329242
0.000337868
0.000346495
0.000355121
0.000363748
9.63284e-05
0.000104955
0.000113581
0.000122208
0.000130834
0.000139461
0.000148087
0.000156713
0.00016534
0.000173966
0.000182593
0.000191219
0.000199846
0.000208472
0.000217098
0.000225725
0.000234351
0.000242978
0.000251604
0.000260231
0.000268857
0.000277483
0.00028611
0.000294736
0.000303363
0.000311989
0.000320616
0.000329242
0.000337868
0.000346495
0.000355121
0.000363748
9.63284e-05
0.000104955
0.000113581
0.000122208
0.000130834
0.000139461
0.000148087
0.000156713
0.00016534
0.000173966
0.000182593
0.000191219
0.000199846
0.000208472
0.000217098
0.000225725
0.000234351
0.000242978
0.000251604
0.000260231
0.000268857
0.000277483
0.00028611
0.000294736
0.000303363
0.000311989
0.000320616
0.000329242
0.000337868
0.000346495
0.000355121
0.000363748
9.63284e-05
0.000104955
0.000113581
0.000122208
0.000130834
0.000139461
0.000148087
0.000156713
0.00016534
0.000173966
0.000182593
0.000191219
0.000199846
0.000208472
0.000217098
0.000225725
0.000234351
0.000242978
0.000251604
0.000260231
0.000268857
0.000277483
0.00028611
0.000294736
0.000303363
0.000311989
0.000320616
0.000329242
0.000337868
0.000346495
0.000355121
0.000363748
9.63284e-05
0.000104955
0.000113581
0.000122208
0.000130834
0.000139461
0.000148087
0.000156713
0.00016534
0.000173966
0.000182593
0.000191219
0.000199846
0.000208472
0.000217098
0.000225725
0.000234351
0.000242978
0.000251604
0.000260231
0.000268857
0.000277483
0.00028611
0.000294736
0.000303363
0.000311989
0.000320616
0.000329242
0.000337868
0.000346495
0.000355121
0.000363748
9.63284e-05
0.000104955
0.000113581
0.000122208
0.000130834
0.000139461
0.000148087
0.000156713
0.00016534
0.000173966
0.000182593
0.000191219
0.000199846
0.000208472
0.000217098
0.000225725
0.000234351
0.000242978
0.000251604
0.000260231
0.000268857
0.000277483
0.00028611
0.000294736
0.000303363
0.000311989
0.000320616
0.000329242
0.000337868
0.000346495
0.000355121
0.000363748
9.63284e-05
0.000104955
0.000113581
0.000122208
0.000130834
0.000139461
0.000148087
0.000156713
0.00016534
0.000173966
0.000182593
0.000191219
0.000199846
0.000208472
0.000217098
0.000225725
0.000234351
0.000242978
0.000251604
0.000260231
0.000268857
0.000277483
0.00028611
0.000294736
0.000303363
0.000311989
0.000320616
0.000329242
0.000337868
0.000346495
0.000355121
0.000363748
9.63284e-05
0.000104955
0.000113581
0.000122208
0.000130834
0.000139461
0.000148087
0.000156713
0.00016534
0.000173966
0.000182593
0.000191219
0.000199846
0.000208472
0.000217098
0.000225725
0.000234351
0.000242978
0.000251604
0.000260231
0.000268857
0.000277483
0.00028611
0.000294736
0.000303363
0.000311989
0.000320616
0.000329242
0.000337868
0.000346495
0.000355121
0.000363748
9.63284e-05
0.000104955
0.000113581
0.000122208
0.000130834
0.000139461
0.000148087
0.000156713
0.00016534
0.000173966
0.000182593
0.000191219
0.000199846
0.000208472
0.000217098
0.000225725
0.000234351
0.000242978
0.000251604
0.000260231
0.000268857
0.000277483
0.00028611
0.000294736
0.000303363
0.000311989
0.000320616
0.000329242
0.000337868
0.000346495
0.000355121
0.000363748
9.63284e-05
0.000104955
0.000113581
0.000122208
0.000130834
0.000139461
0.000148087
0.000156713
0.00016534
0.000173966
0.000182593
0.000191219
0.000199846
0.000208472
0.000217098
0.000225725
0.000234351
0.000242978
0.000251604
0.000260231
0.000268857
0.000277483
0.00028611
0.000294736
0.000303363
0.000311989
0.000320616
0.000329242
0.000337868
0.000346495
0.000355121
0.000363748
9.63284e-05
0.000104955
0.000113581
0.000122208
0.000130834
0.000139461
0.000148087
0.000156713
0.00016534
0.000173966
0.000182593
0.000191219
0.000199846
0.000208472
0.000217098
0.000225725
0.000234351
0.000242978
0.000251604
0.000260231
0.000268857
0.000277483
0.00028611
0.000294736
0.000303363
0.000311989
0.000320616
0.000329242
0.000337868
0.000346495
0.000355121
0.000363748
9.63284e-05
0.000104955
0.000113581
0.000122208
0.000130834
0.000139461
0.000148087
0.000156713
0.00016534
0.000173966
0.000182593
0.000191219
0.000199846
0.000208472
0.000217098
0.000225725
0.000234351
0.000242978
0.000251604
0.000260231
0.000268857
0.000277483
0.00028611
0.000294736
0.000303363
0.000311989
0.000320616
0.000329242
0.000337868
0.000346495
0.000355121
0.000363748
9.63284e-05
0.000104955
0.000113581
0.000122208
0.000130834
0.000139461
0.000148087
0.000156713
0.00016534
0.000173966
0.000182593
0.000191219
0.000199846
0.000208472
0.000217098
0.000225725
0.000234351
0.000242978
0.000251604
0.000260231
0.000268857
0.000277483
0.00028611
0.000294736
0.000303363
0.000311989
0.000320616
0.000329242
0.000337868
0.000346495
0.000355121
0.000363748
9.63284e-05
0.000104955
0.000113581
0.000122208
0.000130834
0.000139461
0.000148087
0.000156713
0.00016534
0.000173966
0.000182593
0.000191219
0.000199846
0.000208472
0.000217098
0.000225725
0.000234351
0.000242978
0.000251604
0.000260231
0.000268857
0.000277483
0.00028611
0.000294736
0.000303363
0.000311989
0.000320616
0.000329242
0.000337868
0.000346495
0.000355121
0.000363748
9.63284e-05
0.000104955
0.000113581
0.000122208
0.000130834
0.000139461
0.000148087
0.000156713
0.00016534
0.000173966
0.000182593
0.000191219
0.000199846
0.000208472
0.000217098
0.000225725
0.000234351
0.000242978
0.000251604
0.000260231
0.000268857
0.000277483
0.00028611
0.000294736
0.000303363
0.000311989
0.000320616
0.000329242
0.000337868
0.000346495
0.000355121
0.000363748
9.63284e-05
0.000104955
0.000113581
0.000122208
0.000130834
0.000139461
0.000148087
0.000156713
0.00016534
0.000173966
0.000182593
0.000191219
0.000199846
0.000208472
0.000217098
0.000225725
0.000234351
0.000242978
0.000251604
0.000260231
0.000268857
0.000277483
0.00028611
0.000294736
0.000303363
0.000311989
0.000320616
0.000329242
0.000337868
0.000346495
0.000355121
0.000363748
9.63284e-05
0.000104955
0.000113581
0.000122208
0.000130834
0.000139461
0.000148087
0.000156713
0.00016534
0.000173966
0.000182593
0.000191219
0.000199846
0.000208472
0.000217098
0.000225725
0.000234351
0.000242978
0.000251604
0.000260231
0.000268857
0.000277483
0.00028611
0.000294736
0.000303363
0.000311989
0.000320616
0.000329242
0.000337868
0.000346495
0.000355121
0.000363748
9.63284e-05
0.000104955
0.000113581
0.000122208
0.000130834
0.000139461
0.000148087
0.000156713
0.00016534
0.000173966
0.000182593
0.000191219
0.000199846
0.000208472
0.000217098
0.000225725
0.000234351
0.000242978
0.000251604
0.000260231
0.000268857
0.000277483
0.00028611
0.000294736
0.000303363
0.000311989
0.000320616
0.000329242
0.000337868
0.000346495
0.000355121
0.000363748
9.63284e-05
0.000104955
0.000113581
0.000122208
0.000130834
0.000139461
0.000148087
0.000156713
0.00016534
0.000173966
0.000182593
0.000191219
0.000199846
0.000208472
0.000217098
0.000225725
0.000234351
0.000242978
0.000251604
0.000260231
0.000268857
0.000277483
0.00028611
0.000294736
0.000303363
0.000311989
0.000320616
0.000329242
0.000337868
0.000346495
0.000355121
0.000363748
9.63284e-05
0.000104955
0.000113581
0.000122208
0.000130834
0.000139461
0.000148087
0.000156713
0.00016534
0.000173966
0.000182593
0.000191219
0.000199846
0.000208472
0.000217098
0.000225725
0.000234351
0.000242978
0.000251604
0.000260231
0.000268857
0.000277483
0.00028611
0.000294736
0.000303363
0.000311989
0.000320616
0.000329242
0.000337868
0.000346495
0.000355121
0.000363748
9.63284e-05
0.000104955
0.000113581
0.000122208
0.000130834
0.000139461
0.000148087
0.000156713
0.00016534
0.000173966
0.000182593
0.000191219
0.000199846
0.000208472
0.000217098
0.000225725
0.000234351
0.000242978
0.000251604
0.000260231
0.000268857
0.000277483
0.00028611
0.000294736
0.000303363
0.000311989
0.000320616
0.000329242
0.000337868
0.000346495
0.000355121
0.000363748
9.63284e-05
0.000104955
0.000113581
0.000122208
0.000130834
0.000139461
0.000148087
0.000156713
0.00016534
0.000173966
0.000182593
0.000191219
0.000199846
0.000208472
0.000217098
0.000225725
0.000234351
0.000242978
0.000251604
0.000260231
0.000268857
0.000277483
0.00028611
0.000294736
0.000303363
0.000311989
0.000320616
0.000329242
0.000337868
0.000346495
0.000355121
0.000363748
9.63284e-05
0.000104955
0.000113581
0.000122208
0.000130834
0.000139461
0.000148087
0.000156713
0.00016534
0.000173966
0.000182593
0.000191219
0.000199846
0.000208472
0.000217098
0.000225725
0.000234351
0.000242978
0.000251604
0.000260231
0.000268857
0.000277483
0.00028611
0.000294736
0.000303363
0.000311989
0.000320616
0.000329242
0.000337868
0.000346495
0.000355121
0.000363748
9.63284e-05
0.000104955
0.000113581
0.000122208
0.000130834
0.000139461
0.000148087
0.000156713
0.00016534
0.000173966
0.000182593
0.000191219
0.000199846
0.000208472
0.000217098
0.000225725
0.000234351
0.000242978
0.000251604
0.000260231
0.000268857
0.000277483
0.00028611
0.000294736
0.000303363
0.000311989
0.000320616
0.000329242
0.000337868
0.000346495
0.000355121
0.000363748
9.63284e-05
0.000104955
0.000113581
0.000122208
0.000130834
0.000139461
0.000148087
0.000156713
0.00016534
0.000173966
0.000182593
0.000191219
0.000199845
0.000208472
0.000217098
0.000225725
0.000234351
0.000242978
0.000251604
0.00026023
0.000268857
0.000277483
0.00028611
0.000294736
0.000303363
0.000311989
0.000320615
0.000329242
0.000337868
0.000346495
0.000355121
0.000363748
9.63284e-05
0.000104955
0.000113581
0.000122208
0.000130834
0.00013946
0.000148087
0.000156713
0.00016534
0.000173966
0.000182593
0.000191219
0.000199845
0.000208472
0.000217098
0.000225725
0.000234351
0.000242978
0.000251604
0.00026023
0.000268857
0.000277483
0.00028611
0.000294736
0.000303363
0.000311989
0.000320615
0.000329242
0.000337868
0.000346495
0.000355121
0.000363748
9.63284e-05
0.000104955
0.000113581
0.000122208
0.000130834
0.00013946
0.000148087
0.000156713
0.00016534
0.000173966
0.000182593
0.000191219
0.000199845
0.000208472
0.000217098
0.000225725
0.000234351
0.000242978
0.000251604
0.00026023
0.000268857
0.000277483
0.00028611
0.000294736
0.000303363
0.000311989
0.000320615
0.000329242
0.000337868
0.000346495
0.000355121
0.000363748
9.63284e-05
0.000104955
0.000113581
0.000122208
0.000130834
0.00013946
0.000148087
0.000156713
0.00016534
0.000173966
0.000182593
0.000191219
0.000199845
0.000208472
0.000217098
0.000225725
0.000234351
0.000242978
0.000251604
0.00026023
0.000268857
0.000277483
0.00028611
0.000294736
0.000303363
0.000311989
0.000320615
0.000329242
0.000337868
0.000346495
0.000355121
0.000363748
9.63284e-05
0.000104955
0.000113581
0.000122208
0.000130834
0.00013946
0.000148087
0.000156713
0.00016534
0.000173966
0.000182593
0.000191219