/*--------------------------------*- C++ -*----------------------------------*\
| =========                 |                                                 |
| \\      /  F ield         | foam-extend: Open Source CFD                    |
|  \\    /   O peration     | Version:  3.0                                   |
|   \\  /    A nd           | Web:         http://www.extend-project.de       |
|    \\/     M anipulation  |                                                 |
\*---------------------------------------------------------------------------*/
FoamFile
{
    version     2.0;
    format      ascii;
    class       volScalarField;
    location    "constant/polyMesh";
    object      Volumes;
}
// * * * * * * * * * * * * * * * * * * * * * * * * * * * * * * * * * * * * * //

dimensions      [0 3 0 0 0 0 0];

internalField   nonuniform List<scalar> 
7680
(
9.37618e-06
1.01888e-05
1.10393e-05
1.19293e-05
1.28602e-05
1.38338e-05
1.48517e-05
1.59158e-05
1.70277e-05
1.81896e-05
1.94032e-05
2.06708e-05
2.19943e-05
2.33761e-05
2.48183e-05
2.63234e-05
2.78939e-05
2.95323e-05
3.12413e-05
3.30236e-05
3.48821e-05
3.68197e-05
3.88395e-05
4.09448e-05
4.31388e-05
4.54249e-05
4.78068e-05
5.02881e-05
5.28727e-05
5.55645e-05
5.83676e-05
6.12864e-05
6.43253e-05
6.74889e-05
7.0782e-05
7.42095e-05
7.77765e-05
8.14884e-05
8.53507e-05
8.93692e-05
9.37618e-06
1.01888e-05
1.10393e-05
1.19293e-05
1.28602e-05
1.38338e-05
1.48517e-05
1.59158e-05
1.70277e-05
1.81896e-05
1.94032e-05
2.06708e-05
2.19943e-05
2.33761e-05
2.48183e-05
2.63234e-05
2.78939e-05
2.95323e-05
3.12413e-05
3.30236e-05
3.48821e-05
3.68197e-05
3.88395e-05
4.09448e-05
4.31388e-05
4.54249e-05
4.78068e-05
5.02881e-05
5.28727e-05
5.55645e-05
5.83676e-05
6.12864e-05
6.43253e-05
6.74889e-05
7.0782e-05
7.42095e-05
7.77765e-05
8.14884e-05
8.53507e-05
8.93692e-05
9.37618e-06
1.01888e-05
1.10393e-05
1.19293e-05
1.28602e-05
1.38338e-05
1.48517e-05
1.59158e-05
1.70277e-05
1.81896e-05
1.94032e-05
2.06708e-05
2.19943e-05
2.33761e-05
2.48183e-05
2.63234e-05
2.78939e-05
2.95323e-05
3.12413e-05
3.30236e-05
3.48821e-05
3.68197e-05
3.88395e-05
4.09448e-05
4.31388e-05
4.54249e-05
4.78068e-05
5.02881e-05
5.28727e-05
5.55645e-05
5.83676e-05
6.12864e-05
6.43253e-05
6.74889e-05
7.0782e-05
7.42095e-05
7.77765e-05
8.14884e-05
8.53507e-05
8.93692e-05
9.37618e-06
1.01888e-05
1.10393e-05
1.19293e-05
1.28602e-05
1.38338e-05
1.48517e-05
1.59158e-05
1.70277e-05
1.81896e-05
1.94032e-05
2.06708e-05
2.19943e-05
2.33761e-05
2.48183e-05
2.63234e-05
2.78939e-05
2.95323e-05
3.12413e-05
3.30236e-05
3.48821e-05
3.68197e-05
3.88395e-05
4.09448e-05
4.31388e-05
4.54249e-05
4.78068e-05
5.02881e-05
5.28727e-05
5.55645e-05
5.83676e-05
6.12864e-05
6.43253e-05
6.74889e-05
7.0782e-05
7.42095e-05
7.77765e-05
8.14884e-05
8.53507e-05
8.93692e-05
9.37618e-06
1.01888e-05
1.10393e-05
1.19293e-05
1.28602e-05
1.38338e-05
1.48517e-05
1.59158e-05
1.70277e-05
1.81896e-05
1.94032e-05
2.06708e-05
2.19943e-05
2.33761e-05
2.48183e-05
2.63234e-05
2.78939e-05
2.95323e-05
3.12413e-05
3.30236e-05
3.48821e-05
3.68197e-05
3.88395e-05
4.09448e-05
4.31388e-05
4.54249e-05
4.78068e-05
5.02881e-05
5.28727e-05
5.55645e-05
5.83676e-05
6.12864e-05
6.43253e-05
6.74889e-05
7.0782e-05
7.42095e-05
7.77765e-05
8.14884e-05
8.53507e-05
8.93692e-05
9.37618e-06
1.01888e-05
1.10393e-05
1.19293e-05
1.28602e-05
1.38338e-05
1.48517e-05
1.59158e-05
1.70277e-05
1.81896e-05
1.94032e-05
2.06708e-05
2.19943e-05
2.33761e-05
2.48183e-05
2.63234e-05
2.78939e-05
2.95323e-05
3.12413e-05
3.30236e-05
3.48821e-05
3.68197e-05
3.88395e-05
4.09448e-05
4.31388e-05
4.54249e-05
4.78068e-05
5.02881e-05
5.28727e-05
5.55645e-05
5.83676e-05
6.12864e-05
6.43253e-05
6.74889e-05
7.0782e-05
7.42095e-05
7.77765e-05
8.14884e-05
8.53507e-05
8.93692e-05
9.37618e-06
1.01888e-05
1.10393e-05
1.19293e-05
1.28602e-05
1.38338e-05
1.48517e-05
1.59158e-05
1.70277e-05
1.81896e-05
1.94032e-05
2.06708e-05
2.19943e-05
2.33761e-05
2.48183e-05
2.63234e-05
2.78939e-05
2.95323e-05
3.12413e-05
3.30236e-05
3.48821e-05
3.68197e-05
3.88395e-05
4.09448e-05
4.31388e-05
4.54249e-05
4.78068e-05
5.02881e-05
5.28727e-05
5.55645e-05
5.83676e-05
6.12864e-05
6.43253e-05
6.74889e-05
7.0782e-05
7.42095e-05
7.77765e-05
8.14884e-05
8.53507e-05
8.93692e-05
9.37618e-06
1.01888e-05
1.10393e-05
1.19293e-05
1.28602e-05
1.38338e-05
1.48517e-05
1.59158e-05
1.70277e-05
1.81896e-05
1.94032e-05
2.06708e-05
2.19943e-05
2.33761e-05
2.48183e-05
2.63234e-05
2.78939e-05
2.95323e-05
3.12413e-05
3.30236e-05
3.48821e-05
3.68197e-05
3.88395e-05
4.09448e-05
4.31388e-05
4.54249e-05
4.78068e-05
5.02881e-05
5.28727e-05
5.55645e-05
5.83676e-05
6.12864e-05
6.43253e-05
6.74889e-05
7.0782e-05
7.42095e-05
7.77765e-05
8.14884e-05
8.53507e-05
8.93692e-05
9.37618e-06
1.01888e-05
1.10393e-05
1.19293e-05
1.28602e-05
1.38338e-05
1.48517e-05
1.59158e-05
1.70277e-05
1.81896e-05
1.94032e-05
2.06708e-05
2.19943e-05
2.33761e-05
2.48183e-05
2.63234e-05
2.78939e-05
2.95323e-05
3.12413e-05
3.30236e-05
3.48821e-05
3.68197e-05
3.88395e-05
4.09448e-05
4.31388e-05
4.54249e-05
4.78068e-05
5.02881e-05
5.28727e-05
5.55645e-05
5.83676e-05
6.12864e-05
6.43253e-05
6.74889e-05
7.0782e-05
7.42095e-05
7.77765e-05
8.14884e-05
8.53507e-05
8.93692e-05
9.37618e-06
1.01888e-05
1.10393e-05
1.19293e-05
1.28602e-05
1.38338e-05
1.48517e-05
1.59158e-05
1.70277e-05
1.81896e-05
1.94032e-05
2.06708e-05
2.19943e-05
2.33761e-05
2.48183e-05
2.63234e-05
2.78939e-05
2.95323e-05
3.12413e-05
3.30236e-05
3.48821e-05
3.68197e-05
3.88395e-05
4.09448e-05
4.31388e-05
4.54249e-05
4.78068e-05
5.02881e-05
5.28727e-05
5.55645e-05
5.83676e-05
6.12864e-05
6.43253e-05
6.74889e-05
7.0782e-05
7.42095e-05
7.77765e-05
8.14884e-05
8.53507e-05
8.93692e-05
9.37618e-06
1.01888e-05
1.10393e-05
1.19293e-05
1.28602e-05
1.38338e-05
1.48517e-05
1.59158e-05
1.70277e-05
1.81896e-05
1.94032e-05
2.06708e-05
2.19943e-05
2.33761e-05
2.48183e-05
2.63234e-05
2.78939e-05
2.95323e-05
3.12413e-05
3.30236e-05
3.48821e-05
3.68197e-05
3.88395e-05
4.09448e-05
4.31388e-05
4.54249e-05
4.78068e-05
5.02881e-05
5.28727e-05
5.55645e-05
5.83676e-05
6.12864e-05
6.43253e-05
6.74889e-05
7.0782e-05
7.42095e-05
7.77765e-05
8.14884e-05
8.53507e-05
8.93692e-05
9.37618e-06
1.01888e-05
1.10393e-05
1.19293e-05
1.28602e-05
1.38338e-05
1.48517e-05
1.59158e-05
1.70277e-05
1.81896e-05
1.94032e-05
2.06708e-05
2.19943e-05
2.33761e-05
2.48183e-05
2.63234e-05
2.78939e-05
2.95323e-05
3.12413e-05
3.30236e-05
3.48821e-05
3.68197e-05
3.88395e-05
4.09448e-05
4.31388e-05
4.54249e-05
4.78068e-05
5.02881e-05
5.28727e-05
5.55645e-05
5.83676e-05
6.12864e-05
6.43253e-05
6.74889e-05
7.0782e-05
7.42095e-05
7.77765e-05
8.14884e-05
8.53507e-05
8.93692e-05
9.37618e-06
1.01888e-05
1.10393e-05
1.19293e-05
1.28602e-05
1.38338e-05
1.48517e-05
1.59158e-05
1.70277e-05
1.81896e-05
1.94032e-05
2.06708e-05
2.19943e-05
2.33761e-05
2.48183e-05
2.63234e-05
2.78939e-05
2.95323e-05
3.12413e-05
3.30236e-05
3.48821e-05
3.68197e-05
3.88395e-05
4.09448e-05
4.31388e-05
4.54249e-05
4.78068e-05
5.02881e-05
5.28727e-05
5.55645e-05
5.83676e-05
6.12864e-05
6.43253e-05
6.74889e-05
7.0782e-05
7.42095e-05
7.77765e-05
8.14884e-05
8.53507e-05
8.93692e-05
9.37618e-06
1.01888e-05
1.10393e-05
1.19293e-05
1.28602e-05
1.38338e-05
1.48517e-05
1.59158e-05
1.70277e-05
1.81896e-05
1.94032e-05
2.06708e-05
2.19943e-05
2.33761e-05
2.48183e-05
2.63234e-05
2.78939e-05
2.95323e-05
3.12413e-05
3.30236e-05
3.48821e-05
3.68197e-05
3.88395e-05
4.09448e-05
4.31388e-05
4.54249e-05
4.78068e-05
5.02881e-05
5.28727e-05
5.55645e-05
5.83676e-05
6.12864e-05
6.43253e-05
6.74889e-05
7.0782e-05
7.42095e-05
7.77765e-05
8.14884e-05
8.53507e-05
8.93692e-05
9.37618e-06
1.01888e-05
1.10393e-05
1.19293e-05
1.28602e-05
1.38338e-05
1.48517e-05
1.59158e-05
1.70277e-05
1.81896e-05
1.94032e-05
2.06708e-05
2.19943e-05
2.33761e-05
2.48183e-05
2.63234e-05
2.78939e-05
2.95323e-05
3.12413e-05
3.30236e-05
3.48821e-05
3.68197e-05
3.88395e-05
4.09448e-05
4.31388e-05
4.54249e-05
4.78068e-05
5.02881e-05
5.28727e-05
5.55645e-05
5.83676e-05
6.12864e-05
6.43253e-05
6.74889e-05
7.0782e-05
7.42095e-05
7.77765e-05
8.14884e-05
8.53507e-05
8.93692e-05
9.37618e-06
1.01888e-05
1.10393e-05
1.19293e-05
1.28602e-05
1.38338e-05
1.48517e-05
1.59158e-05
1.70277e-05
1.81896e-05
1.94032e-05
2.06708e-05
2.19943e-05
2.33761e-05
2.48183e-05
2.63234e-05
2.78939e-05
2.95323e-05
3.12413e-05
3.30236e-05
3.48821e-05
3.68197e-05
3.88395e-05
4.09448e-05
4.31388e-05
4.54249e-05
4.78068e-05
5.02881e-05
5.28727e-05
5.55645e-05
5.83676e-05
6.12864e-05
6.43253e-05
6.74889e-05
7.0782e-05
7.42095e-05
7.77765e-05
8.14884e-05
8.53507e-05
8.93692e-05
9.37618e-06
1.01888e-05
1.10393e-05
1.19293e-05
1.28602e-05
1.38338e-05
1.48517e-05
1.59158e-05
1.70277e-05
1.81896e-05
1.94032e-05
2.06708e-05
2.19943e-05
2.33761e-05
2.48183e-05
2.63234e-05
2.78939e-05
2.95323e-05
3.12413e-05
3.30236e-05
3.48821e-05
3.68197e-05
3.88395e-05
4.09448e-05
4.31388e-05
4.54249e-05
4.78068e-05
5.02881e-05
5.28727e-05
5.55645e-05
5.83676e-05
6.12864e-05
6.43253e-05
6.74889e-05
7.0782e-05
7.42095e-05
7.77765e-05
8.14884e-05
8.53507e-05
8.93692e-05
9.37618e-06
1.01888e-05
1.10393e-05
1.19293e-05
1.28602e-05
1.38338e-05
1.48517e-05
1.59158e-05
1.70277e-05
1.81896e-05
1.94032e-05
2.06708e-05
2.19943e-05
2.33761e-05
2.48183e-05
2.63234e-05
2.78939e-05
2.95323e-05
3.12413e-05
3.30236e-05
3.48821e-05
3.68197e-05
3.88395e-05
4.09448e-05
4.31388e-05
4.54249e-05
4.78068e-05
5.02881e-05
5.28727e-05
5.55645e-05
5.83676e-05
6.12864e-05
6.43253e-05
6.74889e-05
7.0782e-05
7.42095e-05
7.77765e-05
8.14884e-05
8.53507e-05
8.93692e-05
9.37618e-06
1.01888e-05
1.10393e-05
1.19293e-05
1.28602e-05
1.38338e-05
1.48517e-05
1.59158e-05
1.70277e-05
1.81896e-05
1.94032e-05
2.06708e-05
2.19943e-05
2.33761e-05
2.48183e-05
2.63234e-05
2.78939e-05
2.95323e-05
3.12413e-05
3.30236e-05
3.48821e-05
3.68197e-05
3.88395e-05
4.09448e-05
4.31388e-05
4.54249e-05
4.78068e-05
5.02881e-05
5.28727e-05
5.55645e-05
5.83676e-05
6.12864e-05
6.43253e-05
6.74889e-05
7.0782e-05
7.42095e-05
7.77765e-05
8.14884e-05
8.53507e-05
8.93692e-05
9.37618e-06
1.01888e-05
1.10393e-05
1.19293e-05
1.28602e-05
1.38338e-05
1.48517e-05
1.59158e-05
1.70277e-05
1.81896e-05
1.94032e-05
2.06708e-05
2.19943e-05
2.33761e-05
2.48183e-05
2.63234e-05
2.78939e-05
2.95323e-05
3.12413e-05
3.30236e-05
3.48821e-05
3.68197e-05
3.88395e-05
4.09448e-05
4.31388e-05
4.54249e-05
4.78068e-05
5.02881e-05
5.28727e-05
5.55645e-05
5.83676e-05
6.12864e-05
6.43253e-05
6.74889e-05
7.0782e-05
7.42095e-05
7.77765e-05
8.14884e-05
8.53507e-05
8.93692e-05
9.37618e-06
1.01888e-05
1.10393e-05
1.19293e-05
1.28602e-05
1.38338e-05
1.48517e-05
1.59158e-05
1.70277e-05
1.81896e-05
1.94032e-05
2.06708e-05
2.19943e-05
2.33761e-05
2.48183e-05
2.63234e-05
2.78939e-05
2.95323e-05
3.12413e-05
3.30236e-05
3.48821e-05
3.68197e-05
3.88395e-05
4.09448e-05
4.31388e-05
4.54249e-05
4.78068e-05
5.02881e-05
5.28727e-05
5.55645e-05
5.83676e-05
6.12864e-05
6.43253e-05
6.74889e-05
7.0782e-05
7.42095e-05
7.77765e-05
8.14884e-05
8.53507e-05
8.93692e-05
9.37618e-06
1.01888e-05
1.10393e-05
1.19293e-05
1.28602e-05
1.38338e-05
1.48517e-05
1.59158e-05
1.70277e-05
1.81896e-05
1.94032e-05
2.06708e-05
2.19943e-05
2.33761e-05
2.48183e-05
2.63234e-05
2.78939e-05
2.95323e-05
3.12413e-05
3.30236e-05
3.48821e-05
3.68197e-05
3.88395e-05
4.09448e-05
4.31388e-05
4.54249e-05
4.78068e-05
5.02881e-05
5.28727e-05
5.55645e-05
5.83676e-05
6.12864e-05
6.43253e-05
6.74889e-05
7.0782e-05
7.42095e-05
7.77765e-05
8.14884e-05
8.53507e-05
8.93692e-05
9.37618e-06
1.01888e-05
1.10393e-05
1.19293e-05
1.28602e-05
1.38338e-05
1.48517e-05
1.59158e-05
1.70277e-05
1.81896e-05
1.94032e-05
2.06708e-05
2.19943e-05
2.33761e-05
2.48183e-05
2.63234e-05
2.78939e-05
2.95323e-05
3.12413e-05
3.30236e-05
3.48821e-05
3.68197e-05
3.88395e-05
4.09448e-05
4.31388e-05
4.54249e-05
4.78068e-05
5.02881e-05
5.28727e-05
5.55645e-05
5.83676e-05
6.12864e-05
6.43253e-05
6.74889e-05
7.0782e-05
7.42095e-05
7.77765e-05
8.14884e-05
8.53507e-05
8.93692e-05
9.37618e-06
1.01888e-05
1.10393e-05
1.19293e-05
1.28602e-05
1.38338e-05
1.48517e-05
1.59158e-05
1.70277e-05
1.81896e-05
1.94032e-05
2.06708e-05
2.19943e-05
2.33761e-05
2.48183e-05
2.63234e-05
2.78939e-05
2.95323e-05
3.12413e-05
3.30236e-05
3.48821e-05
3.68197e-05
3.88395e-05
4.09448e-05
4.31388e-05
4.54249e-05
4.78068e-05
5.02881e-05
5.28727e-05
5.55645e-05
5.83676e-05
6.12864e-05
6.43253e-05
6.74889e-05
7.0782e-05
7.42095e-05
7.77765e-05
8.14884e-05
8.53507e-05
8.93692e-05
9.37618e-06
1.01888e-05
1.10393e-05
1.19293e-05
1.28602e-05
1.38338e-05
1.48517e-05
1.59158e-05
1.70277e-05
1.81896e-05
1.94032e-05
2.06708e-05
2.19943e-05
2.33761e-05
2.48183e-05
2.63234e-05
2.78939e-05
2.95323e-05
3.12413e-05
3.30236e-05
3.48821e-05
3.68197e-05
3.88395e-05
4.09448e-05
4.31388e-05
4.54249e-05
4.78068e-05
5.02881e-05
5.28727e-05
5.55645e-05
5.83676e-05
6.12864e-05
6.43253e-05
6.74889e-05
7.0782e-05
7.42095e-05
7.77765e-05
8.14884e-05
8.53507e-05
8.93692e-05
9.37618e-06
1.01888e-05
1.10393e-05
1.19293e-05
1.28602e-05
1.38338e-05
1.48517e-05
1.59158e-05
1.70277e-05
1.81896e-05
1.94032e-05
2.06708e-05
2.19943e-05
2.33761e-05
2.48183e-05
2.63234e-05
2.78939e-05
2.95323e-05
3.12413e-05
3.30236e-05
3.48821e-05
3.68197e-05
3.88395e-05
4.09448e-05
4.31388e-05
4.54249e-05
4.78068e-05
5.02881e-05
5.28727e-05
5.55645e-05
5.83676e-05
6.12864e-05
6.43253e-05
6.74889e-05
7.0782e-05
7.42095e-05
7.77765e-05
8.14884e-05
8.53507e-05
8.93692e-05
9.37618e-06
1.01888e-05
1.10393e-05
1.19293e-05
1.28602e-05
1.38338e-05
1.48517e-05
1.59158e-05
1.70277e-05
1.81896e-05
1.94032e-05
2.06708e-05
2.19943e-05
2.33761e-05
2.48183e-05
2.63234e-05
2.78939e-05
2.95323e-05
3.12413e-05
3.30236e-05
3.48821e-05
3.68197e-05
3.88395e-05
4.09448e-05
4.31388e-05
4.54249e-05
4.78068e-05
5.02881e-05
5.28727e-05
5.55645e-05
5.83676e-05
6.12864e-05
6.43253e-05
6.74889e-05
7.0782e-05
7.42095e-05
7.77765e-05
8.14884e-05
8.53507e-05
8.93692e-05
9.37618e-06
1.01888e-05
1.10393e-05
1.19293e-05
1.28602e-05
1.38338e-05
1.48517e-05
1.59158e-05
1.70277e-05
1.81896e-05
1.94032e-05
2.06708e-05
2.19943e-05
2.33761e-05
2.48183e-05
2.63234e-05
2.78939e-05
2.95323e-05
3.12413e-05
3.30236e-05
3.48821e-05
3.68197e-05
3.88395e-05
4.09448e-05
4.31388e-05
4.54249e-05
4.78068e-05
5.02881e-05
5.28727e-05
5.55645e-05
5.83676e-05
6.12864e-05
6.43253e-05
6.74889e-05
7.0782e-05
7.42095e-05
7.77765e-05
8.14884e-05
8.53507e-05
8.93692e-05
9.37618e-06
1.01888e-05
1.10393e-05
1.19293e-05
1.28602e-05
1.38338e-05
1.48517e-05
1.59158e-05
1.70277e-05
1.81896e-05
1.94032e-05
2.06708e-05
2.19943e-05
2.33761e-05
2.48183e-05
2.63234e-05
2.78939e-05
2.95323e-05
3.12413e-05
3.30236e-05
3.48821e-05
3.68197e-05
3.88395e-05
4.09448e-05
4.31388e-05
4.54249e-05
4.78068e-05
5.02881e-05
5.28727e-05
5.55645e-05
5.83676e-05
6.12864e-05
6.43253e-05
6.74889e-05
7.0782e-05
7.42095e-05
7.77765e-05
8.14884e-05
8.53507e-05
8.93692e-05
9.37618e-06
1.01888e-05
1.10393e-05
1.19293e-05
1.28602e-05
1.38338e-05
1.48517e-05
1.59158e-05
1.70277e-05
1.81896e-05
1.94032e-05
2.06708e-05
2.19943e-05
2.33761e-05
2.48183e-05
2.63234e-05
2.78939e-05
2.95323e-05
3.12413e-05
3.30236e-05
3.48821e-05
3.68197e-05
3.88395e-05
4.09448e-05
4.31388e-05
4.54249e-05
4.78068e-05
5.02881e-05
5.28727e-05
5.55645e-05
5.83676e-05
6.12864e-05
6.43253e-05
6.74889e-05
7.0782e-05
7.42095e-05
7.77765e-05
8.14884e-05
8.53507e-05
8.93692e-05
9.37618e-06
1.01888e-05
1.10393e-05
1.19293e-05
1.28602e-05
1.38338e-05
1.48517e-05
1.59158e-05
1.70277e-05
1.81896e-05
1.94032e-05
2.06708e-05
2.19943e-05
2.33761e-05
2.48183e-05
2.63234e-05
2.78939e-05
2.95323e-05
3.12413e-05
3.30236e-05
3.48821e-05
3.68197e-05
3.88395e-05
4.09448e-05
4.31388e-05
4.54249e-05
4.78068e-05
5.02881e-05
5.28727e-05
5.55645e-05
5.83676e-05
6.12864e-05
6.43253e-05
6.74889e-05
7.0782e-05
7.42095e-05
7.77765e-05
8.14884e-05
8.53507e-05
8.93692e-05
9.37618e-06
1.01888e-05
1.10393e-05
1.19293e-05
1.28602e-05
1.38338e-05
1.48517e-05
1.59158e-05
1.70277e-05
1.81896e-05
1.94032e-05
2.06708e-05
2.19943e-05
2.33761e-05
2.48183e-05
2.63234e-05
2.78939e-05
2.95323e-05
3.12413e-05
3.30236e-05
3.48821e-05
3.68197e-05
3.88395e-05
4.09448e-05
4.31388e-05
4.54249e-05
4.78068e-05
5.02881e-05
5.28727e-05
5.55645e-05
5.83676e-05
6.12864e-05
6.43253e-05
6.74889e-05
7.0782e-05
7.42095e-05
7.77765e-05
8.14884e-05
8.53507e-05
8.93692e-05
9.37618e-06
1.01888e-05
1.10393e-05
1.19293e-05
1.28602e-05
1.38338e-05
1.48517e-05
1.59158e-05
1.70277e-05
1.81896e-05
1.94032e-05
2.06708e-05
2.19943e-05
2.33761e-05
2.48183e-05
2.63234e-05
2.78939e-05
2.95323e-05
3.12413e-05
3.30236e-05
3.48821e-05
3.68197e-05
3.88395e-05
4.09448e-05
4.31388e-05
4.54249e-05
4.78068e-05
5.02881e-05
5.28727e-05
5.55645e-05
5.83676e-05
6.12864e-05
6.43253e-05
6.74889e-05
7.0782e-05
7.42095e-05
7.77765e-05
8.14884e-05
8.53507e-05
8.93692e-05
9.37618e-06
1.01888e-05
1.10393e-05
1.19293e-05
1.28602e-05
1.38338e-05
1.48517e-05
1.59158e-05
1.70277e-05
1.81896e-05
1.94032e-05
2.06708e-05
2.19943e-05
2.33761e-05
2.48183e-05
2.63234e-05
2.78939e-05
2.95323e-05
3.12413e-05
3.30236e-05
3.48821e-05
3.68197e-05
3.88395e-05
4.09448e-05
4.31388e-05
4.54249e-05
4.78068e-05
5.02881e-05
5.28727e-05
5.55645e-05
5.83676e-05
6.12864e-05
6.43253e-05
6.74889e-05
7.0782e-05
7.42095e-05
7.77765e-05
8.14884e-05
8.53507e-05
8.93692e-05
9.37618e-06
1.01888e-05
1.10393e-05
1.19293e-05
1.28602e-05
1.38338e-05
1.48517e-05
1.59158e-05
1.70277e-05
1.81896e-05
1.94032e-05
2.06708e-05
2.19943e-05
2.33761e-05
2.48183e-05
2.63234e-05
2.78939e-05
2.95323e-05
3.12413e-05
3.30236e-05
3.48821e-05
3.68197e-05
3.88395e-05
4.09448e-05
4.31388e-05
4.54249e-05
4.78068e-05
5.02881e-05
5.28727e-05
5.55645e-05
5.83676e-05
6.12864e-05
6.43253e-05
6.74889e-05
7.0782e-05
7.42095e-05
7.77765e-05
8.14884e-05
8.53507e-05
8.93692e-05
9.37618e-06
1.01888e-05
1.10393e-05
1.19293e-05
1.28602e-05
1.38338e-05
1.48517e-05
1.59158e-05
1.70277e-05
1.81896e-05
1.94032e-05
2.06708e-05
2.19943e-05
2.33761e-05
2.48183e-05
2.63234e-05
2.78939e-05
2.95323e-05
3.12413e-05
3.30236e-05
3.48821e-05
3.68197e-05
3.88395e-05
4.09448e-05
4.31388e-05
4.54249e-05
4.78068e-05
5.02881e-05
5.28727e-05
5.55645e-05
5.83676e-05
6.12864e-05
6.43253e-05
6.74889e-05
7.0782e-05
7.42095e-05
7.77765e-05
8.14884e-05
8.53507e-05
8.93692e-05
9.37618e-06
1.01888e-05
1.10393e-05
1.19293e-05
1.28602e-05
1.38338e-05
1.48517e-05
1.59158e-05
1.70277e-05
1.81896e-05
1.94032e-05
2.06708e-05
2.19943e-05
2.33761e-05
2.48183e-05
2.63234e-05
2.78939e-05
2.95323e-05
3.12413e-05
3.30236e-05
3.48821e-05
3.68197e-05
3.88395e-05
4.09448e-05
4.31388e-05
4.54249e-05
4.78068e-05
5.02881e-05
5.28727e-05
5.55645e-05
5.83676e-05
6.12864e-05
6.43253e-05
6.74889e-05
7.0782e-05
7.42095e-05
7.77765e-05
8.14884e-05
8.53507e-05
8.93692e-05
9.37618e-06
1.01888e-05
1.10393e-05
1.19293e-05
1.28602e-05
1.38338e-05
1.48517e-05
1.59158e-05
1.70277e-05
1.81896e-05
1.94032e-05
2.06708e-05
2.19943e-05
2.33761e-05
2.48183e-05
2.63234e-05
2.78939e-05
2.95323e-05
3.12413e-05
3.30236e-05
3.48821e-05
3.68197e-05
3.88395e-05
4.09448e-05
4.31388e-05
4.54249e-05
4.78068e-05
5.02881e-05
5.28727e-05
5.55645e-05
5.83676e-05
6.12864e-05
6.43253e-05
6.74889e-05
7.0782e-05
7.42095e-05
7.77765e-05
8.14884e-05
8.53507e-05
8.93692e-05
9.37618e-06
1.01888e-05
1.10393e-05
1.19293e-05
1.28602e-05
1.38338e-05
1.48517e-05
1.59158e-05
1.70277e-05
1.81896e-05
1.94032e-05
2.06708e-05
2.19943e-05
2.33761e-05
2.48183e-05
2.63234e-05
2.78939e-05
2.95323e-05
3.12413e-05
3.30236e-05
3.48821e-05
3.68197e-05
3.88395e-05
4.09448e-05
4.31388e-05
4.54249e-05
4.78068e-05
5.02881e-05
5.28727e-05
5.55645e-05
5.83676e-05
6.12864e-05
6.43253e-05
6.74889e-05
7.0782e-05
7.42095e-05
7.77765e-05
8.14884e-05
8.53507e-05
8.93692e-05
9.37618e-06
1.01888e-05
1.10393e-05
1.19293e-05
1.28602e-05
1.38338e-05
1.48517e-05
1.59158e-05
1.70277e-05
1.81896e-05
1.94032e-05
2.06708e-05
2.19943e-05
2.33761e-05
2.48183e-05
2.63234e-05
2.78939e-05
2.95323e-05
3.12413e-05
3.30236e-05
3.48821e-05
3.68197e-05
3.88395e-05
4.09448e-05
4.31388e-05
4.54249e-05
4.78068e-05
5.02881e-05
5.28727e-05
5.55645e-05
5.83676e-05
6.12864e-05
6.43253e-05
6.74889e-05
7.0782e-05
7.42095e-05
7.77765e-05
8.14884e-05
8.53507e-05
8.93692e-05
9.37618e-06
1.01888e-05
1.10393e-05
1.19293e-05
1.28602e-05
1.38338e-05
1.48517e-05
1.59158e-05
1.70277e-05
1.81896e-05
1.94032e-05
2.06708e-05
2.19943e-05
2.33761e-05
2.48183e-05
2.63234e-05
2.78939e-05
2.95323e-05
3.12413e-05
3.30236e-05
3.48821e-05
3.68197e-05
3.88395e-05
4.09448e-05
4.31388e-05
4.54249e-05
4.78068e-05
5.02881e-05
5.28727e-05
5.55645e-05
5.83676e-05
6.12864e-05
6.43253e-05
6.74889e-05
7.0782e-05
7.42095e-05
7.77765e-05
8.14884e-05
8.53507e-05
8.93692e-05
9.37618e-06
1.01888e-05
1.10393e-05
1.19293e-05
1.28602e-05
1.38338e-05
1.48517e-05
1.59158e-05
1.70277e-05
1.81896e-05
1.94032e-05
2.06708e-05
2.19943e-05
2.33761e-05
2.48183e-05
2.63234e-05
2.78939e-05
2.95323e-05
3.12413e-05
3.30236e-05
3.48821e-05
3.68197e-05
3.88395e-05
4.09448e-05
4.31388e-05
4.54249e-05
4.78068e-05
5.02881e-05
5.28727e-05
5.55645e-05
5.83676e-05
6.12864e-05
6.43253e-05
6.74889e-05
7.0782e-05
7.42095e-05
7.77765e-05
8.14884e-05
8.53507e-05
8.93692e-05
9.37618e-06
1.01888e-05
1.10393e-05
1.19293e-05
1.28602e-05
1.38338e-05
1.48517e-05
1.59158e-05
1.70277e-05
1.81896e-05
1.94032e-05
2.06708e-05
2.19943e-05
2.33761e-05
2.48183e-05
2.63234e-05
2.78939e-05
2.95323e-05
3.12413e-05
3.30236e-05
3.48821e-05
3.68197e-05
3.88395e-05
4.09448e-05
4.31388e-05
4.54249e-05
4.78068e-05
5.02881e-05
5.28727e-05
5.55645e-05
5.83676e-05
6.12864e-05
6.43253e-05
6.74889e-05
7.0782e-05
7.42095e-05
7.77765e-05
8.14884e-05
8.53507e-05
8.93692e-05
9.37618e-06
1.01888e-05
1.10393e-05
1.19293e-05
1.28602e-05
1.38338e-05
1.48517e-05
1.59158e-05
1.70277e-05
1.81896e-05
1.94032e-05
2.06708e-05
2.19943e-05
2.33761e-05
2.48183e-05
2.63234e-05
2.78939e-05
2.95323e-05
3.12413e-05
3.30236e-05
3.48821e-05
3.68197e-05
3.88395e-05
4.09448e-05
4.31388e-05
4.54249e-05
4.78068e-05
5.02881e-05
5.28727e-05
5.55645e-05
5.83676e-05
6.12864e-05
6.43253e-05
6.74889e-05
7.0782e-05
7.42095e-05
7.77765e-05
8.14884e-05
8.53507e-05
8.93692e-05
9.37618e-06
1.01888e-05
1.10393e-05
1.19293e-05
1.28602e-05
1.38338e-05
1.48517e-05
1.59158e-05
1.70277e-05
1.81896e-05
1.94032e-05
2.06708e-05
2.19943e-05
2.33761e-05
2.48183e-05
2.63234e-05
2.78939e-05
2.95323e-05
3.12413e-05
3.30236e-05
3.48821e-05
3.68197e-05
3.88395e-05
4.09448e-05
4.31388e-05
4.54249e-05
4.78068e-05
5.02881e-05
5.28727e-05
5.55645e-05
5.83676e-05
6.12864e-05
6.43253e-05
6.74889e-05
7.0782e-05
7.42095e-05
7.77765e-05
8.14884e-05
8.53507e-05
8.93692e-05
9.37618e-06
1.01888e-05
1.10393e-05
1.19293e-05
1.28602e-05
1.38338e-05
1.48517e-05
1.59158e-05
1.70277e-05
1.81896e-05
1.94032e-05
2.06708e-05
2.19943e-05
2.33761e-05
2.48183e-05
2.63234e-05
2.78939e-05
2.95323e-05
3.12413e-05
3.30236e-05
3.48821e-05
3.68197e-05
3.88395e-05
4.09448e-05
4.31388e-05
4.54249e-05
4.78068e-05
5.02881e-05
5.28727e-05
5.55645e-05
5.83676e-05
6.12864e-05
6.43253e-05
6.74889e-05
7.0782e-05
7.42095e-05
7.77765e-05
8.14884e-05
8.53507e-05
8.93692e-05
9.37618e-06
1.01888e-05
1.10393e-05
1.19293e-05
1.28602e-05
1.38338e-05
1.48517e-05
1.59158e-05
1.70277e-05
1.81896e-05
1.94032e-05
2.06708e-05
2.19943e-05
2.33761e-05
2.48183e-05
2.63234e-05
2.78939e-05
2.95323e-05
3.12413e-05
3.30236e-05
3.48821e-05
3.68197e-05
3.88395e-05
4.09448e-05
4.31388e-05
4.54249e-05
4.78068e-05
5.02881e-05
5.28727e-05
5.55645e-05
5.83676e-05
6.12864e-05
6.43253e-05
6.74889e-05
7.0782e-05
7.42095e-05
7.77765e-05
8.14884e-05
8.53507e-05
8.93692e-05
9.37618e-06
1.01888e-05
1.10393e-05
1.19293e-05
1.28602e-05
1.38338e-05
1.48517e-05
1.59158e-05
1.70277e-05
1.81896e-05
1.94032e-05
2.06708e-05
2.19943e-05
2.33761e-05
2.48183e-05
2.63234e-05
2.78939e-05
2.95323e-05
3.12413e-05
3.30236e-05
3.48821e-05
3.68197e-05
3.88395e-05
4.09448e-05
4.31388e-05
4.54249e-05
4.78068e-05
5.02881e-05
5.28727e-05
5.55645e-05
5.83676e-05
6.12864e-05
6.43253e-05
6.74889e-05
7.0782e-05
7.42095e-05
7.77765e-05
8.14884e-05
8.53507e-05
8.93692e-05
9.37618e-06
1.01888e-05
1.10393e-05
1.19293e-05
1.28602e-05
1.38338e-05
1.48517e-05
1.59158e-05
1.70277e-05
1.81896e-05
1.94032e-05
2.06708e-05
2.19943e-05
2.33761e-05
2.48183e-05
2.63234e-05
2.78939e-05
2.95323e-05
3.12413e-05
3.30236e-05
3.48821e-05
3.68197e-05
3.88395e-05
4.09448e-05
4.31388e-05
4.54249e-05
4.78068e-05
5.02881e-05
5.28727e-05
5.55645e-05
5.83676e-05
6.12864e-05
6.43253e-05
6.74889e-05
7.0782e-05
7.42095e-05
7.77765e-05
8.14884e-05
8.53507e-05
8.93692e-05
9.37618e-06
1.01888e-05
1.10393e-05
1.19293e-05
1.28602e-05
1.38338e-05
1.48517e-05
1.59158e-05
1.70277e-05
1.81896e-05
1.94032e-05
2.06708e-05
2.19943e-05
2.33761e-05
2.48183e-05
2.63234e-05
2.78939e-05
2.95323e-05
3.12413e-05
3.30236e-05
3.48821e-05
3.68197e-05
3.88395e-05
4.09448e-05
4.31388e-05
4.54249e-05
4.78068e-05
5.02881e-05
5.28727e-05
5.55645e-05
5.83676e-05
6.12864e-05
6.43253e-05
6.74889e-05
7.0782e-05
7.42095e-05
7.77765e-05
8.14884e-05
8.53507e-05
8.93692e-05
9.37618e-06
1.01888e-05
1.10393e-05
1.19293e-05
1.28602e-05
1.38338e-05
1.48517e-05
1.59158e-05
1.70277e-05
1.81896e-05
1.94032e-05
2.06708e-05
2.19943e-05
2.33761e-05
2.48183e-05
2.63234e-05
2.78939e-05
2.95323e-05
3.12413e-05
3.30236e-05
3.48821e-05
3.68197e-05
3.88395e-05
4.09448e-05
4.31388e-05
4.54249e-05
4.78068e-05
5.02881e-05
5.28727e-05
5.55645e-05
5.83676e-05
6.12864e-05
6.43253e-05
6.74889e-05
7.0782e-05
7.42095e-05
7.77765e-05
8.14884e-05
8.53507e-05
8.93692e-05
9.37618e-06
1.01888e-05
1.10393e-05
1.19293e-05
1.28602e-05
1.38338e-05
1.48517e-05
1.59158e-05
1.70277e-05
1.81896e-05
1.94032e-05
2.06708e-05
2.19943e-05
2.33761e-05
2.48183e-05
2.63234e-05
2.78939e-05
2.95323e-05
3.12413e-05
3.30236e-05
3.48821e-05
3.68197e-05
3.88395e-05
4.09448e-05
4.31388e-05
4.54249e-05
4.78068e-05
5.02881e-05
5.28727e-05
5.55645e-05
5.83676e-05
6.12864e-05
6.43253e-05
6.74889e-05
7.0782e-05
7.42095e-05
7.77765e-05
8.14884e-05
8.53507e-05
8.93692e-05
9.37618e-06
1.01888e-05
1.10393e-05
1.19293e-05
1.28602e-05
1.38338e-05
1.48517e-05
1.59158e-05
1.70277e-05
1.81896e-05
1.94032e-05
2.06708e-05
2.19943e-05
2.33761e-05
2.48183e-05
2.63234e-05
2.78939e-05
2.95323e-05
3.12413e-05
3.30236e-05
3.48821e-05
3.68197e-05
3.88395e-05
4.09448e-05
4.31388e-05
4.54249e-05
4.78068e-05
5.02881e-05
5.28727e-05
5.55645e-05
5.83676e-05
6.12864e-05
6.43253e-05
6.74889e-05
7.0782e-05
7.42095e-05
7.77765e-05
8.14884e-05
8.53507e-05
8.93692e-05
9.37618e-06
1.01888e-05
1.10393e-05
1.19293e-05
1.28602e-05
1.38338e-05
1.48517e-05
1.59158e-05
1.70277e-05
1.81896e-05
1.94032e-05
2.06708e-05
2.19943e-05
2.33761e-05
2.48183e-05
2.63234e-05
2.78939e-05
2.95323e-05
3.12413e-05
3.30236e-05
3.48821e-05
3.68197e-05
3.88395e-05
4.09448e-05
4.31388e-05
4.54249e-05
4.78068e-05
5.02881e-05
5.28727e-05
5.55645e-05
5.83676e-05
6.12864e-05
6.43253e-05
6.74889e-05
7.0782e-05
7.42095e-05
7.77765e-05
8.14884e-05
8.53507e-05
8.93692e-05
9.37618e-06
1.01888e-05
1.10393e-05
1.19293e-05
1.28602e-05
1.38338e-05
1.48517e-05
1.59158e-05
1.70277e-05
1.81896e-05
1.94032e-05
2.06708e-05
2.19943e-05
2.33761e-05
2.48183e-05
2.63234e-05
2.78939e-05
2.95323e-05
3.12413e-05
3.30236e-05
3.48821e-05
3.68197e-05
3.88395e-05
4.09448e-05
4.31388e-05
4.54249e-05
4.78068e-05
5.02881e-05
5.28727e-05
5.55645e-05
5.83676e-05
6.12864e-05
6.43253e-05
6.74889e-05
7.0782e-05
7.42095e-05
7.77765e-05
8.14884e-05
8.53507e-05
8.93692e-05
9.37618e-06
1.01888e-05
1.10393e-05
1.19293e-05
1.28602e-05
1.38338e-05
1.48517e-05
1.59158e-05
1.70277e-05
1.81896e-05
1.94032e-05
2.06708e-05
2.19943e-05
2.33761e-05
2.48183e-05
2.63234e-05
2.78939e-05
2.95323e-05
3.12413e-05
3.30236e-05
3.48821e-05
3.68197e-05
3.88395e-05
4.09448e-05
4.31388e-05
4.54249e-05
4.78068e-05
5.02881e-05
5.28727e-05
5.55645e-05
5.83676e-05
6.12864e-05
6.43253e-05
6.74889e-05
7.0782e-05
7.42095e-05
7.77765e-05
8.14884e-05
8.53507e-05
8.93692e-05
9.37618e-06
1.01888e-05
1.10393e-05
1.19293e-05
1.28602e-05
1.38338e-05
1.48517e-05
1.59158e-05
1.70277e-05
1.81896e-05
1.94032e-05
2.06708e-05
2.19943e-05
2.33761e-05
2.48183e-05
2.63234e-05
2.78939e-05
2.95323e-05
3.12413e-05
3.30236e-05
3.48821e-05
3.68197e-05
3.88395e-05
4.09448e-05
4.31388e-05
4.54249e-05
4.78068e-05
5.02881e-05
5.28727e-05
5.55645e-05
5.83676e-05
6.12864e-05
6.43253e-05
6.74889e-05
7.0782e-05
7.42095e-05
7.77765e-05
8.14884e-05
8.53507e-05
8.93692e-05
9.37618e-06
1.01888e-05
1.10393e-05
1.19293e-05
1.28602e-05
1.38338e-05
1.48517e-05
1.59158e-05
1.70277e-05
1.81896e-05
1.94032e-05
2.06708e-05
2.19943e-05
2.33761e-05
2.48183e-05
2.63234e-05
2.78939e-05
2.95323e-05
3.12413e-05
3.30236e-05
3.48821e-05
3.68197e-05
3.88395e-05
4.09448e-05
4.31388e-05
4.54249e-05
4.78068e-05
5.02881e-05
5.28727e-05
5.55645e-05
5.83676e-05
6.12864e-05
6.43253e-05
6.74889e-05
7.0782e-05
7.42095e-05
7.77765e-05
8.14884e-05
8.53507e-05
8.93692e-05
9.37618e-06
1.01888e-05
1.10393e-05
1.19293e-05
1.28602e-05
1.38338e-05
1.48517e-05
1.59158e-05
1.70277e-05
1.81896e-05
1.94032e-05
2.06708e-05
2.19943e-05
2.33761e-05
2.48183e-05
2.63234e-05
2.78939e-05
2.95323e-05
3.12413e-05
3.30236e-05
3.48821e-05
3.68197e-05
3.88395e-05
4.09448e-05
4.31388e-05
4.54249e-05
4.78068e-05
5.02881e-05
5.28727e-05
5.55645e-05
5.83676e-05
6.12864e-05
6.43253e-05
6.74889e-05
7.0782e-05
7.42095e-05
7.77765e-05
8.14884e-05
8.53507e-05
8.93692e-05
9.37618e-06
1.01888e-05
1.10393e-05
1.19293e-05
1.28602e-05
1.38338e-05
1.48517e-05
1.59158e-05
1.70277e-05
1.81896e-05
1.94032e-05
2.06708e-05
2.19943e-05
2.33761e-05
2.48183e-05
2.63234e-05
2.78939e-05
2.95323e-05
3.12413e-05
3.30236e-05
3.48821e-05
3.68197e-05
3.88395e-05
4.09448e-05
4.31388e-05
4.54249e-05
4.78068e-05
5.02881e-05
5.28727e-05
5.55645e-05
5.83676e-05
6.12864e-05
6.43253e-05
6.74889e-05
7.0782e-05
7.42095e-05
7.77765e-05
8.14884e-05
8.53507e-05
8.93692e-05
9.37618e-06
1.01888e-05
1.10393e-05
1.19293e-05
1.28602e-05
1.38338e-05
1.48517e-05
1.59158e-05
1.70277e-05
1.81896e-05
1.94032e-05
2.06708e-05
2.19943e-05
2.33761e-05
2.48183e-05
2.63234e-05
2.78939e-05
2.95323e-05
3.12413e-05
3.30236e-05
3.48821e-05
3.68197e-05
3.88395e-05
4.09448e-05
4.31388e-05
4.54249e-05
4.78068e-05
5.02881e-05
5.28727e-05
5.55645e-05
5.83676e-05
6.12864e-05