/*--------------------------------*- C++ -*----------------------------------*\
| =========                 |                                                 |
| \\      /  F ield         | OpenFOAM: The Open Source CFD Toolbox           |
|  \\    /   O peration     | Version:  2.2.0                                 |
|   \\  /    A nd           | Web:      www.OpenFOAM.org                      |
|    \\/     M anipulation  |                                                 |
\*---------------------------------------------------------------------------*/
FoamFile
{
    version     2.0;
    format      ascii;
    class       volScalarField;
    location    "constant/polyMesh";
    object      Volumes;
}
// * * * * * * * * * * * * * * * * * * * * * * * * * * * * * * * * * * * * * //

dimensions      [0 3 0 0 0 0 0];

internalField   nonuniform List<scalar> 
1280
(
0.000402256
0.000471214
0.000540172
0.00060913
0.000678089
0.000747047
0.000816005
0.000884963
0.000953922
0.00102288
0.00109184
0.0011608
0.00122975
0.00129871
0.00136767
0.00143663
0.000402256
0.000471214
0.000540172
0.000609131
0.000678089
0.000747047
0.000816005
0.000884963
0.000953922
0.00102288
0.00109184
0.0011608
0.00122975
0.00129871
0.00136767
0.00143663
0.000402256
0.000471214
0.000540172
0.000609131
0.000678089
0.000747047
0.000816005
0.000884963
0.000953922
0.00102288
0.00109184
0.0011608
0.00122975
0.00129871
0.00136767
0.00143663
0.000402256
0.000471214
0.000540172
0.000609131
0.000678089
0.000747047
0.000816005
0.000884963
0.000953922
0.00102288
0.00109184
0.0011608
0.00122975
0.00129871
0.00136767
0.00143663
0.000402256
0.000471214
0.000540172
0.000609131
0.000678089
0.000747047
0.000816005
0.000884964
0.000953922
0.00102288
0.00109184
0.0011608
0.00122975
0.00129871
0.00136767
0.00143663
0.000402256
0.000471214
0.000540172
0.000609131
0.000678089
0.000747047
0.000816005
0.000884964
0.000953922
0.00102288
0.00109184
0.0011608
0.00122975
0.00129871
0.00136767
0.00143663
0.000402256
0.000471214
0.000540172
0.000609131
0.000678089
0.000747047
0.000816005
0.000884964
0.000953922
0.00102288
0.00109184
0.0011608
0.00122975
0.00129871
0.00136767
0.00143663
0.000402256
0.000471214
0.000540172
0.000609131
0.000678089
0.000747047
0.000816005
0.000884964
0.000953922
0.00102288
0.00109184
0.0011608
0.00122975
0.00129871
0.00136767
0.00143663
0.000402256
0.000471214
0.000540172
0.000609131
0.000678089
0.000747047
0.000816005
0.000884964
0.000953922
0.00102288
0.00109184
0.0011608
0.00122975
0.00129871
0.00136767
0.00143663
0.000402256
0.000471214
0.000540172
0.000609131
0.000678089
0.000747047
0.000816005
0.000884964
0.000953922
0.00102288
0.00109184
0.0011608
0.00122975
0.00129871
0.00136767
0.00143663
0.000402256
0.000471214
0.000540172
0.000609131
0.000678089
0.000747047
0.000816005
0.000884964
0.000953922
0.00102288
0.00109184
0.0011608
0.00122975
0.00129871
0.00136767
0.00143663
0.000402256
0.000471214
0.000540172
0.000609131
0.000678089
0.000747047
0.000816005
0.000884964
0.000953922
0.00102288
0.00109184
0.0011608
0.00122975
0.00129871
0.00136767
0.00143663
0.000402256
0.000471214
0.000540172
0.000609131
0.000678089
0.000747047
0.000816005
0.000884964
0.000953922
0.00102288
0.00109184
0.0011608
0.00122975
0.00129871
0.00136767
0.00143663
0.000402256
0.000471214
0.000540172
0.000609131
0.000678089
0.000747047
0.000816005
0.000884964
0.000953922
0.00102288
0.00109184
0.0011608
0.00122975
0.00129871
0.00136767
0.00143663
0.000402256
0.000471214
0.000540172
0.000609131
0.000678089
0.000747047
0.000816005
0.000884964
0.000953922
0.00102288
0.00109184
0.0011608
0.00122975
0.00129871
0.00136767
0.00143663
0.000402256
0.000471214
0.000540172
0.000609131
0.000678089
0.000747047
0.000816005
0.000884964
0.000953922
0.00102288
0.00109184
0.0011608
0.00122975
0.00129871
0.00136767
0.00143663
0.000402256
0.000471214
0.000540172
0.000609131
0.000678089
0.000747047
0.000816005
0.000884963
0.000953922
0.00102288
0.00109184
0.0011608
0.00122975
0.00129871
0.00136767
0.00143663
0.000402256
0.000471214
0.000540172
0.000609131
0.000678089
0.000747047
0.000816005
0.000884963
0.000953922
0.00102288
0.00109184
0.0011608
0.00122975
0.00129871
0.00136767
0.00143663
0.000402256
0.000471214
0.000540172
0.000609131
0.000678089
0.000747047
0.000816005
0.000884963
0.000953922
0.00102288
0.00109184
0.0011608
0.00122975
0.00129871
0.00136767
0.00143663
0.000402256
0.000471214
0.000540172
0.00060913
0.000678089
0.000747047
0.000816005
0.000884963
0.000953922
0.00102288
0.00109184
0.0011608
0.00122975
0.00129871
0.00136767
0.00143663
0.000402256
0.000471214
0.000540172
0.00060913
0.000678089
0.000747047
0.000816005
0.000884963
0.000953922
0.00102288
0.00109184
0.0011608
0.00122975
0.00129871
0.00136767
0.00143663
0.000402256
0.000471214
0.000540172
0.000609131
0.000678089
0.000747047
0.000816005
0.000884963
0.000953922
0.00102288
0.00109184
0.0011608
0.00122975
0.00129871
0.00136767
0.00143663
0.000402256
0.000471214
0.000540172
0.000609131
0.000678089
0.000747047
0.000816005
0.000884963
0.000953922
0.00102288
0.00109184
0.0011608
0.00122975
0.00129871
0.00136767
0.00143663
0.000402256
0.000471214
0.000540172
0.000609131
0.000678089
0.000747047
0.000816005
0.000884963
0.000953922
0.00102288
0.00109184
0.0011608
0.00122975
0.00129871
0.00136767
0.00143663
0.000402256
0.000471214
0.000540172
0.000609131
0.000678089
0.000747047
0.000816005
0.000884964
0.000953922
0.00102288
0.00109184
0.0011608
0.00122975
0.00129871
0.00136767
0.00143663
0.000402256
0.000471214
0.000540172
0.000609131
0.000678089
0.000747047
0.000816005
0.000884964
0.000953922
0.00102288
0.00109184
0.0011608
0.00122975
0.00129871
0.00136767
0.00143663
0.000402256
0.000471214
0.000540172
0.000609131
0.000678089
0.000747047
0.000816005
0.000884964
0.000953922
0.00102288
0.00109184
0.0011608
0.00122975
0.00129871
0.00136767
0.00143663
0.000402256
0.000471214
0.000540172
0.000609131
0.000678089
0.000747047
0.000816005
0.000884964
0.000953922
0.00102288
0.00109184
0.0011608
0.00122975
0.00129871
0.00136767
0.00143663
0.000402256
0.000471214
0.000540172
0.000609131
0.000678089
0.000747047
0.000816005
0.000884964
0.000953922
0.00102288
0.00109184
0.0011608
0.00122975
0.00129871
0.00136767
0.00143663
0.000402256
0.000471214
0.000540172
0.000609131
0.000678089
0.000747047
0.000816005
0.000884964
0.000953922
0.00102288
0.00109184
0.0011608
0.00122975
0.00129871
0.00136767
0.00143663
0.000402256
0.000471214
0.000540172
0.000609131
0.000678089
0.000747047
0.000816005
0.000884964
0.000953922
0.00102288
0.00109184
0.0011608
0.00122975
0.00129871
0.00136767
0.00143663
0.000402256
0.000471214
0.000540172
0.000609131
0.000678089
0.000747047
0.000816005
0.000884964
0.000953922
0.00102288
0.00109184
0.0011608
0.00122975
0.00129871
0.00136767
0.00143663
0.000402256
0.000471214
0.000540172
0.000609131
0.000678089
0.000747047
0.000816005
0.000884964
0.000953922
0.00102288
0.00109184
0.0011608
0.00122975
0.00129871
0.00136767
0.00143663
0.000402256
0.000471214
0.000540172
0.000609131
0.000678089
0.000747047
0.000816005
0.000884964
0.000953922
0.00102288
0.00109184
0.0011608
0.00122975
0.00129871
0.00136767
0.00143663
0.000402256
0.000471214
0.000540172
0.000609131
0.000678089
0.000747047
0.000816005
0.000884964
0.000953922
0.00102288
0.00109184
0.0011608
0.00122975
0.00129871
0.00136767
0.00143663
0.000402256
0.000471214
0.000540172
0.000609131
0.000678089
0.000747047
0.000816005
0.000884964
0.000953922
0.00102288
0.00109184
0.0011608
0.00122975
0.00129871
0.00136767
0.00143663
0.000402256
0.000471214
0.000540172
0.000609131
0.000678089
0.000747047
0.000816005
0.000884963
0.000953922
0.00102288
0.00109184
0.0011608
0.00122975
0.00129871
0.00136767
0.00143663
0.000402256
0.000471214
0.000540172
0.000609131
0.000678089
0.000747047
0.000816005
0.000884963
0.000953922
0.00102288
0.00109184
0.0011608
0.00122975
0.00129871
0.00136767
0.00143663
0.000402256
0.000471214
0.000540172
0.000609131
0.000678089
0.000747047
0.000816005
0.000884963
0.000953922
0.00102288
0.00109184
0.0011608
0.00122975
0.00129871
0.00136767
0.00143663
0.000402256
0.000471214
0.000540172
0.00060913
0.000678089
0.000747047
0.000816005
0.000884963
0.000953922
0.00102288
0.00109184
0.0011608
0.00122975
0.00129871
0.00136767
0.00143663
0.000402256
0.000471214
0.000540172
0.00060913
0.000678089
0.000747047
0.000816005
0.000884963
0.000953922
0.00102288
0.00109184
0.0011608
0.00122975
0.00129871
0.00136767
0.00143663
0.000402256
0.000471214
0.000540172
0.000609131
0.000678089
0.000747047
0.000816005
0.000884963
0.000953922
0.00102288
0.00109184
0.0011608
0.00122975
0.00129871
0.00136767
0.00143663
0.000402256
0.000471214
0.000540172
0.000609131
0.000678089
0.000747047
0.000816005
0.000884963
0.000953922
0.00102288
0.00109184
0.0011608
0.00122975
0.00129871
0.00136767
0.00143663
0.000402256
0.000471214
0.000540172
0.000609131
0.000678089
0.000747047
0.000816005
0.000884963
0.000953922
0.00102288
0.00109184
0.0011608
0.00122975
0.00129871
0.00136767
0.00143663
0.000402256
0.000471214
0.000540172
0.000609131
0.000678089
0.000747047
0.000816005
0.000884964
0.000953922
0.00102288
0.00109184
0.0011608
0.00122975
0.00129871
0.00136767
0.00143663
0.000402256
0.000471214
0.000540172
0.000609131
0.000678089
0.000747047
0.000816005
0.000884964
0.000953922
0.00102288
0.00109184
0.0011608
0.00122975
0.00129871
0.00136767
0.00143663
0.000402256
0.000471214
0.000540172
0.000609131
0.000678089
0.000747047
0.000816005
0.000884964
0.000953922
0.00102288
0.00109184
0.0011608
0.00122975
0.00129871
0.00136767
0.00143663
0.000402256
0.000471214
0.000540172
0.000609131
0.000678089
0.000747047
0.000816005
0.000884964
0.000953922
0.00102288
0.00109184
0.0011608
0.00122975
0.00129871
0.00136767
0.00143663
0.000402256
0.000471214
0.000540172
0.000609131
0.000678089
0.000747047
0.000816005
0.000884964
0.000953922
0.00102288
0.00109184
0.0011608
0.00122975
0.00129871
0.00136767
0.00143663
0.000402256
0.000471214
0.000540172
0.000609131
0.000678089
0.000747047
0.000816005
0.000884964
0.000953922
0.00102288
0.00109184
0.0011608
0.00122975
0.00129871
0.00136767
0.00143663
0.000402256
0.000471214
0.000540172
0.000609131
0.000678089
0.000747047
0.000816005
0.000884964
0.000953922
0.00102288
0.00109184
0.0011608
0.00122975
0.00129871
0.00136767
0.00143663
0.000402256
0.000471214
0.000540172
0.000609131
0.000678089
0.000747047
0.000816005
0.000884964
0.000953922
0.00102288
0.00109184
0.0011608
0.00122975
0.00129871
0.00136767
0.00143663
0.000402256
0.000471214
0.000540172
0.000609131
0.000678089
0.000747047
0.000816005
0.000884964
0.000953922
0.00102288
0.00109184
0.0011608
0.00122975
0.00129871
0.00136767
0.00143663
0.000402256
0.000471214
0.000540172
0.000609131
0.000678089
0.000747047
0.000816005
0.000884964
0.000953922
0.00102288
0.00109184
0.0011608
0.00122975
0.00129871
0.00136767
0.00143663
0.000402256
0.000471214
0.000540172
0.000609131
0.000678089
0.000747047
0.000816005
0.000884964
0.000953922
0.00102288
0.00109184
0.0011608
0.00122975
0.00129871
0.00136767
0.00143663
0.000402256
0.000471214
0.000540172
0.000609131
0.000678089
0.000747047
0.000816005
0.000884964
0.000953922
0.00102288
0.00109184
0.0011608
0.00122975
0.00129871
0.00136767
0.00143663
0.000402256
0.000471214
0.000540172
0.000609131
0.000678089
0.000747047
0.000816005
0.000884963
0.000953922
0.00102288
0.00109184
0.0011608
0.00122975
0.00129871
0.00136767
0.00143663
0.000402256
0.000471214
0.000540172
0.000609131
0.000678089
0.000747047
0.000816005
0.000884963
0.000953922
0.00102288
0.00109184
0.0011608
0.00122975
0.00129871
0.00136767
0.00143663
0.000402256
0.000471214
0.000540172
0.000609131
0.000678089
0.000747047
0.000816005
0.000884963
0.000953922
0.00102288
0.00109184
0.0011608
0.00122975
0.00129871
0.00136767
0.00143663
0.000402256
0.000471214
0.000540172
0.00060913
0.000678089
0.000747047
0.000816005
0.000884963
0.000953922
0.00102288
0.00109184
0.0011608
0.00122975
0.00129871
0.00136767
0.00143663
0.000402256
0.000471214
0.000540172
0.00060913
0.000678089
0.000747047
0.000816005
0.000884963
0.000953922
0.00102288
0.00109184
0.0011608
0.00122975
0.00129871
0.00136767
0.00143663
0.000402256
0.000471214
0.000540172
0.000609131
0.000678089
0.000747047
0.000816005
0.000884963
0.000953922
0.00102288
0.00109184
0.0011608
0.00122975
0.00129871
0.00136767
0.00143663
0.000402256
0.000471214
0.000540172
0.000609131
0.000678089
0.000747047
0.000816005
0.000884963
0.000953922
0.00102288
0.00109184
0.0011608
0.00122975
0.00129871
0.00136767
0.00143663
0.000402256
0.000471214
0.000540172
0.000609131
0.000678089
0.000747047
0.000816005
0.000884963
0.000953922
0.00102288
0.00109184
0.0011608
0.00122975
0.00129871
0.00136767
0.00143663
0.000402256
0.000471214
0.000540172
0.000609131
0.000678089
0.000747047
0.000816005
0.000884964
0.000953922
0.00102288
0.00109184
0.0011608
0.00122975
0.00129871
0.00136767
0.00143663
0.000402256
0.000471214
0.000540172
0.000609131
0.000678089
0.000747047
0.000816005
0.000884964
0.000953922
0.00102288
0.00109184
0.0011608
0.00122975
0.00129871
0.00136767
0.00143663
0.000402256
0.000471214
0.000540172
0.000609131
0.000678089
0.000747047
0.000816005
0.000884964
0.000953922
0.00102288
0.00109184
0.0011608
0.00122975
0.00129871
0.00136767
0.00143663
0.000402256
0.000471214
0.000540172
0.000609131
0.000678089
0.000747047
0.000816005
0.000884964
0.000953922
0.00102288
0.00109184
0.0011608
0.00122975
0.00129871
0.00136767
0.00143663
0.000402256
0.000471214
0.000540172
0.000609131
0.000678089
0.000747047
0.000816005
0.000884964
0.000953922
0.00102288
0.00109184
0.0011608
0.00122975
0.00129871
0.00136767
0.00143663
0.000402256
0.000471214
0.000540172
0.000609131
0.000678089
0.000747047
0.000816005
0.000884964
0.000953922
0.00102288
0.00109184
0.0011608
0.00122975
0.00129871
0.00136767
0.00143663
0.000402256
0.000471214
0.000540172
0.000609131
0.000678089
0.000747047
0.000816005
0.000884964
0.000953922
0.00102288
0.00109184
0.0011608
0.00122975
0.00129871
0.00136767
0.00143663
0.000402256
0.000471214
0.000540172
0.000609131
0.000678089
0.000747047
0.000816005
0.000884964
0.000953922
0.00102288
0.00109184
0.0011608
0.00122975
0.00129871
0.00136767
0.00143663
0.000402256
0.000471214
0.000540172
0.000609131
0.000678089
0.000747047
0.000816005
0.000884964
0.000953922
0.00102288
0.00109184
0.0011608
0.00122975
0.00129871
0.00136767
0.00143663
0.000402256
0.000471214
0.000540172
0.000609131
0.000678089
0.000747047
0.000816005
0.000884964
0.000953922
0.00102288
0.00109184
0.0011608
0.00122975
0.00129871
0.00136767
0.00143663
0.000402256
0.000471214
0.000540172
0.000609131
0.000678089
0.000747047
0.000816005
0.000884964
0.000953922
0.00102288
0.00109184
0.0011608
0.00122975
0.00129871
0.00136767
0.00143663
0.000402256
0.000471214
0.000540172
0.000609131
0.000678089
0.000747047
0.000816005
0.000884964
0.000953922
0.00102288
0.00109184
0.0011608
0.00122975
0.00129871
0.00136767
0.00143663
0.000402256
0.000471214
0.000540172
0.000609131
0.000678089
0.000747047
0.000816005
0.000884963
0.000953922
0.00102288
0.00109184
0.0011608
0.00122975
0.00129871
0.00136767
0.00143663
0.000402256
0.000471214
0.000540172
0.000609131
0.000678089
0.000747047
0.000816005
0.000884963
0.000953922
0.00102288
0.00109184
0.0011608
0.00122975
0.00129871
0.00136767
0.00143663
0.000402256
0.000471214
0.000540172
0.000609131
0.000678089
0.000747047
0.000816005
0.000884963
0.000953922
0.00102288
0.00109184
0.0011608
0.00122975
0.00129871
0.00136767
0.00143663
0.000402256
0.000471214
0.000540172
0.00060913
0.000678089
0.000747047
0.000816005
0.000884963
0.000953922
0.00102288
0.00109184
0.0011608
0.00122975
0.00129871
0.00136767
0.00143663
)
;

boundaryField
{
    up
    {
        type            calculated;
        value           uniform 0;
    }
    hole
    {
        type            calculated;
        value           uniform 0;
    }
    frontAndBack
    {
        type            empty;
    }
}


// ************************************************************************* //
