/*--------------------------------*- C++ -*----------------------------------*\
| =========                 |                                                 |
| \\      /  F ield         | OpenFOAM: The Open Source CFD Toolbox           |
|  \\    /   O peration     | Version:  1.7.1                                 |
|   \\  /    A nd           | Web:      www.OpenFOAM.com                      |
|    \\/     M anipulation  |                                                 |
\*---------------------------------------------------------------------------*/
FoamFile
{
    version     2.0;
    format      ascii;
    class       volScalarField;
    object      p;
}
// * * * * * * * * * * * * * * * * * * * * * * * * * * * * * * * * * * * * * //

dimensions      [0 0 0 0 0 0 0];

internalField   uniform 0;

boundaryField
{
	 down 
    {
        type				symmetryPlane;
    }

	 right
    {
        type            fixedValue;
        value           uniform 0;
    }

	 up
    {
        type            symmetryPlane;
    }

	 left 
    {
        type            zeroGradient;
    }

    cylinder
    {
        type            implicitExtrapolation;//myPressure;
        value           uniform 1;
    }

    defaultFaces
    {
       type            empty;
    }

}

// ************************************************************************* //

