/*--------------------------------*- C++ -*----------------------------------*\
| =========                 |                                                 |
| \\      /  F ield         | foam-extend: Open Source CFD                    |
|  \\    /   O peration     | Version:  3.0                                   |
|   \\  /    A nd           | Web:         http://www.extend-project.de       |
|    \\/     M anipulation  |                                                 |
\*---------------------------------------------------------------------------*/
FoamFile
{
    version     2.0;
    format      ascii;
    class       volVectorField;
    location    "constant/polyMesh";
    object      Centers;
}
// * * * * * * * * * * * * * * * * * * * * * * * * * * * * * * * * * * * * * //

dimensions      [0 0 0 0 0 0 0];

internalField   nonuniform List<vector> 
480
(
(0.227742 0.014927 0.05)
(0.284838 0.0186693 0.05)
(0.346544 0.0227137 0.05)
(0.413215 0.0270835 0.05)
(0.485241 0.0318044 0.05)
(0.563045 0.0369039 0.05)
(0.647088 0.0424124 0.05)
(0.737865 0.0483622 0.05)
(0.835916 0.0547888 0.05)
(0.941821 0.0617302 0.05)
(0.223845 0.0445255 0.05)
(0.279964 0.0556883 0.05)
(0.340614 0.0677524 0.05)
(0.406145 0.0807872 0.05)
(0.476938 0.0948689 0.05)
(0.553411 0.11008 0.05)
(0.636016 0.126511 0.05)
(0.72524 0.144259 0.05)
(0.821613 0.163429 0.05)
(0.925707 0.184134 0.05)
(0.216118 0.0733622 0.05)
(0.2703 0.0917545 0.05)
(0.328857 0.111632 0.05)
(0.392125 0.133109 0.05)
(0.460475 0.15631 0.05)
(0.534308 0.181373 0.05)
(0.614061 0.208446 0.05)
(0.700206 0.237688 0.05)
(0.793253 0.269273 0.05)
(0.893753 0.303388 0.05)
(0.204693 0.100944 0.05)
(0.256011 0.126251 0.05)
(0.311473 0.153601 0.05)
(0.371396 0.183152 0.05)
(0.436133 0.215077 0.05)
(0.506063 0.249563 0.05)
(0.5816 0.286814 0.05)
(0.663191 0.32705 0.05)
(0.751319 0.37051 0.05)
(0.846506 0.417451 0.05)
(0.189766 0.126798 0.05)
(0.237342 0.158587 0.05)
(0.288759 0.192943 0.05)
(0.344313 0.230063 0.05)
(0.404329 0.270164 0.05)
(0.469159 0.313482 0.05)
(0.539188 0.360274 0.05)
(0.614829 0.410816 0.05)
(0.69653 0.465407 0.05)
(0.784776 0.524371 0.05)
(0.171593 0.150483 0.05)
(0.214612 0.18821 0.05)
(0.261104 0.228982 0.05)
(0.311338 0.273036 0.05)
(0.365606 0.320628 0.05)
(0.424228 0.372038 0.05)
(0.48755 0.42757 0.05)
(0.555947 0.487552 0.05)
(0.629824 0.55234 0.05)
(0.709618 0.622318 0.05)
(0.150483 0.171593 0.05)
(0.18821 0.214612 0.05)
(0.228982 0.261104 0.05)
(0.273036 0.311338 0.05)
(0.320628 0.365606 0.05)
(0.372038 0.424228 0.05)
(0.42757 0.48755 0.05)
(0.487552 0.555947 0.05)
(0.55234 0.629824 0.05)
(0.622318 0.709618 0.05)
(0.126798 0.189766 0.05)
(0.158587 0.237342 0.05)
(0.192943 0.288759 0.05)
(0.230063 0.344313 0.05)
(0.270164 0.404329 0.05)
(0.313482 0.469159 0.05)
(0.360274 0.539188 0.05)
(0.410816 0.614829 0.05)
(0.465407 0.69653 0.05)
(0.524371 0.784776 0.05)
(0.100944 0.204693 0.05)
(0.126251 0.256011 0.05)
(0.153601 0.311473 0.05)
(0.183152 0.371396 0.05)
(0.215077 0.436133 0.05)
(0.249563 0.506063 0.05)
(0.286814 0.5816 0.05)
(0.32705 0.663191 0.05)
(0.37051 0.751319 0.05)
(0.417451 0.846506 0.05)
(0.0733622 0.216118 0.05)
(0.0917545 0.2703 0.05)
(0.111632 0.328857 0.05)
(0.133109 0.392125 0.05)
(0.15631 0.460475 0.05)
(0.181373 0.534308 0.05)
(0.208446 0.614061 0.05)
(0.237688 0.700206 0.05)
(0.269273 0.793253 0.05)
(0.303388 0.893753 0.05)
(0.0445255 0.223845 0.05)
(0.0556883 0.279964 0.05)
(0.0677524 0.340614 0.05)
(0.0807872 0.406145 0.05)
(0.0948689 0.476938 0.05)
(0.11008 0.553411 0.05)
(0.126511 0.636016 0.05)
(0.144259 0.72524 0.05)
(0.163429 0.821613 0.05)
(0.184134 0.925707 0.05)
(0.014927 0.227742 0.05)
(0.0186693 0.284838 0.05)
(0.0227137 0.346544 0.05)
(0.0270835 0.413215 0.05)
(0.0318044 0.485241 0.05)
(0.0369039 0.563045 0.05)
(0.0424124 0.647088 0.05)
(0.0483622 0.737865 0.05)
(0.0547888 0.835916 0.05)
(0.0617302 0.941821 0.05)
(-0.014927 0.227742 0.05)
(-0.0186693 0.284838 0.05)
(-0.0227137 0.346544 0.05)
(-0.0270835 0.413215 0.05)
(-0.0318044 0.485241 0.05)
(-0.0369039 0.563045 0.05)
(-0.0424124 0.647088 0.05)
(-0.0483622 0.737865 0.05)
(-0.0547888 0.835916 0.05)
(-0.0617302 0.941821 0.05)
(-0.0445255 0.223845 0.05)
(-0.0556883 0.279964 0.05)
(-0.0677524 0.340614 0.05)
(-0.0807872 0.406145 0.05)
(-0.0948689 0.476938 0.05)
(-0.11008 0.553411 0.05)
(-0.126511 0.636016 0.05)
(-0.144259 0.72524 0.05)
(-0.163429 0.821613 0.05)
(-0.184134 0.925707 0.05)
(-0.0733622 0.216118 0.05)
(-0.0917545 0.2703 0.05)
(-0.111632 0.328857 0.05)
(-0.133109 0.392125 0.05)
(-0.15631 0.460475 0.05)
(-0.181373 0.534308 0.05)
(-0.208446 0.614061 0.05)
(-0.237688 0.700206 0.05)
(-0.269273 0.793253 0.05)
(-0.303388 0.893753 0.05)
(-0.100944 0.204693 0.05)
(-0.126251 0.256011 0.05)
(-0.153601 0.311473 0.05)
(-0.183152 0.371396 0.05)
(-0.215077 0.436133 0.05)
(-0.249563 0.506063 0.05)
(-0.286814 0.5816 0.05)
(-0.32705 0.663191 0.05)
(-0.37051 0.751319 0.05)
(-0.417451 0.846506 0.05)
(-0.126798 0.189766 0.05)
(-0.158587 0.237342 0.05)
(-0.192943 0.288759 0.05)
(-0.230063 0.344313 0.05)
(-0.270164 0.404329 0.05)
(-0.313482 0.469159 0.05)
(-0.360274 0.539188 0.05)
(-0.410816 0.614829 0.05)
(-0.465407 0.69653 0.05)
(-0.524371 0.784776 0.05)
(-0.150483 0.171593 0.05)
(-0.18821 0.214612 0.05)
(-0.228982 0.261104 0.05)
(-0.273036 0.311338 0.05)
(-0.320628 0.365606 0.05)
(-0.372038 0.424228 0.05)
(-0.42757 0.48755 0.05)
(-0.487552 0.555947 0.05)
(-0.55234 0.629824 0.05)
(-0.622318 0.709618 0.05)
(-0.171593 0.150483 0.05)
(-0.214612 0.18821 0.05)
(-0.261104 0.228982 0.05)
(-0.311338 0.273036 0.05)
(-0.365606 0.320628 0.05)
(-0.424228 0.372038 0.05)
(-0.48755 0.42757 0.05)
(-0.555947 0.487552 0.05)
(-0.629824 0.55234 0.05)
(-0.709618 0.622318 0.05)
(-0.189766 0.126798 0.05)
(-0.237342 0.158587 0.05)
(-0.288759 0.192943 0.05)
(-0.344313 0.230063 0.05)
(-0.404329 0.270164 0.05)
(-0.469159 0.313482 0.05)
(-0.539188 0.360274 0.05)
(-0.614829 0.410816 0.05)
(-0.69653 0.465407 0.05)
(-0.784776 0.524371 0.05)
(-0.204693 0.100944 0.05)
(-0.256011 0.126251 0.05)
(-0.311473 0.153601 0.05)
(-0.371396 0.183152 0.05)
(-0.436133 0.215077 0.05)
(-0.506063 0.249563 0.05)
(-0.5816 0.286814 0.05)
(-0.663191 0.32705 0.05)
(-0.751319 0.37051 0.05)
(-0.846506 0.417451 0.05)
(-0.216118 0.0733622 0.05)
(-0.2703 0.0917545 0.05)
(-0.328857 0.111632 0.05)
(-0.392125 0.133109 0.05)
(-0.460475 0.15631 0.05)
(-0.534308 0.181373 0.05)
(-0.614061 0.208446 0.05)
(-0.700206 0.237688 0.05)
(-0.793253 0.269273 0.05)
(-0.893753 0.303388 0.05)
(-0.223845 0.0445255 0.05)
(-0.279964 0.0556883 0.05)
(-0.340614 0.0677524 0.05)
(-0.406145 0.0807872 0.05)
(-0.476938 0.0948689 0.05)
(-0.553411 0.11008 0.05)
(-0.636016 0.126511 0.05)
(-0.72524 0.144259 0.05)
(-0.821613 0.163429 0.05)
(-0.925707 0.184134 0.05)
(-0.227742 0.014927 0.05)
(-0.284838 0.0186693 0.05)
(-0.346544 0.0227137 0.05)
(-0.413215 0.0270835 0.05)
(-0.485241 0.0318044 0.05)
(-0.563045 0.0369039 0.05)
(-0.647088 0.0424124 0.05)
(-0.737865 0.0483622 0.05)
(-0.835916 0.0547888 0.05)
(-0.941821 0.0617302 0.05)
(-0.227742 -0.014927 0.05)
(-0.284838 -0.0186693 0.05)
(-0.346544 -0.0227137 0.05)
(-0.413215 -0.0270835 0.05)
(-0.485241 -0.0318044 0.05)
(-0.563045 -0.0369039 0.05)
(-0.647088 -0.0424124 0.05)
(-0.737865 -0.0483622 0.05)
(-0.835916 -0.0547888 0.05)
(-0.941821 -0.0617302 0.05)
(-0.223845 -0.0445255 0.05)
(-0.279964 -0.0556883 0.05)
(-0.340614 -0.0677524 0.05)
(-0.406145 -0.0807872 0.05)
(-0.476938 -0.0948689 0.05)
(-0.553411 -0.11008 0.05)
(-0.636016 -0.126511 0.05)
(-0.72524 -0.144259 0.05)
(-0.821613 -0.163429 0.05)
(-0.925707 -0.184134 0.05)
(-0.216118 -0.0733622 0.05)
(-0.2703 -0.0917545 0.05)
(-0.328857 -0.111632 0.05)
(-0.392125 -0.133109 0.05)
(-0.460475 -0.15631 0.05)
(-0.534308 -0.181373 0.05)
(-0.614061 -0.208446 0.05)
(-0.700206 -0.237688 0.05)
(-0.793253 -0.269273 0.05)
(-0.893753 -0.303388 0.05)
(-0.204693 -0.100944 0.05)
(-0.256011 -0.126251 0.05)
(-0.311473 -0.153601 0.05)
(-0.371396 -0.183152 0.05)
(-0.436133 -0.215077 0.05)
(-0.506063 -0.249563 0.05)
(-0.5816 -0.286814 0.05)
(-0.663191 -0.32705 0.05)
(-0.751319 -0.37051 0.05)
(-0.846506 -0.417451 0.05)
(-0.189766 -0.126798 0.05)
(-0.237342 -0.158587 0.05)
(-0.288759 -0.192943 0.05)
(-0.344313 -0.230063 0.05)
(-0.404329 -0.270164 0.05)
(-0.469159 -0.313482 0.05)
(-0.539188 -0.360274 0.05)
(-0.614829 -0.410816 0.05)
(-0.69653 -0.465407 0.05)
(-0.784776 -0.524371 0.05)
(-0.171593 -0.150483 0.05)
(-0.214612 -0.18821 0.05)
(-0.261104 -0.228982 0.05)
(-0.311338 -0.273036 0.05)
(-0.365606 -0.320628 0.05)
(-0.424228 -0.372038 0.05)
(-0.48755 -0.42757 0.05)
(-0.555947 -0.487552 0.05)
(-0.629824 -0.55234 0.05)
(-0.709618 -0.622318 0.05)
(-0.150483 -0.171593 0.05)
(-0.18821 -0.214612 0.05)
(-0.228982 -0.261104 0.05)
(-0.273036 -0.311338 0.05)
(-0.320628 -0.365606 0.05)
(-0.372038 -0.424228 0.05)
(-0.42757 -0.48755 0.05)
(-0.487552 -0.555947 0.05)
(-0.55234 -0.629824 0.05)
(-0.622318 -0.709618 0.05)
(-0.126798 -0.189766 0.05)
(-0.158587 -0.237342 0.05)
(-0.192943 -0.288759 0.05)
(-0.230063 -0.344313 0.05)
(-0.270164 -0.404329 0.05)
(-0.313482 -0.469159 0.05)
(-0.360274 -0.539188 0.05)
(-0.410816 -0.614829 0.05)
(-0.465407 -0.69653 0.05)
(-0.524371 -0.784776 0.05)
(-0.100944 -0.204693 0.05)
(-0.126251 -0.256011 0.05)
(-0.153601 -0.311473 0.05)
(-0.183152 -0.371396 0.05)
(-0.215077 -0.436133 0.05)
(-0.249563 -0.506063 0.05)
(-0.286814 -0.5816 0.05)
(-0.32705 -0.663191 0.05)
(-0.37051 -0.751319 0.05)
(-0.417451 -0.846506 0.05)
(-0.0733622 -0.216118 0.05)
(-0.0917545 -0.2703 0.05)
(-0.111632 -0.328857 0.05)
(-0.133109 -0.392125 0.05)
(-0.15631 -0.460475 0.05)
(-0.181373 -0.534308 0.05)
(-0.208446 -0.614061 0.05)
(-0.237688 -0.700206 0.05)
(-0.269273 -0.793253 0.05)
(-0.303388 -0.893753 0.05)
(-0.0445255 -0.223845 0.05)
(-0.0556883 -0.279964 0.05)
(-0.0677524 -0.340614 0.05)
(-0.0807872 -0.406145 0.05)
(-0.0948689 -0.476938 0.05)
(-0.11008 -0.553411 0.05)
(-0.126511 -0.636016 0.05)
(-0.144259 -0.72524 0.05)
(-0.163429 -0.821613 0.05)
(-0.184134 -0.925707 0.05)
(-0.014927 -0.227742 0.05)
(-0.0186693 -0.284838 0.05)
(-0.0227137 -0.346544 0.05)
(-0.0270835 -0.413215 0.05)
(-0.0318044 -0.485241 0.05)
(-0.0369039 -0.563045 0.05)
(-0.0424124 -0.647088 0.05)
(-0.0483622 -0.737865 0.05)
(-0.0547888 -0.835916 0.05)
(-0.0617302 -0.941821 0.05)
(0.014927 -0.227742 0.05)
(0.0186693 -0.284838 0.05)
(0.0227137 -0.346544 0.05)
(0.0270835 -0.413215 0.05)
(0.0318044 -0.485241 0.05)
(0.0369039 -0.563045 0.05)
(0.0424124 -0.647088 0.05)
(0.0483622 -0.737865 0.05)
(0.0547888 -0.835916 0.05)
(0.0617302 -0.941821 0.05)
(0.0445255 -0.223845 0.05)
(0.0556883 -0.279964 0.05)
(0.0677524 -0.340614 0.05)
(0.0807872 -0.406145 0.05)
(0.0948689 -0.476938 0.05)
(0.11008 -0.553411 0.05)
(0.126511 -0.636016 0.05)
(0.144259 -0.72524 0.05)
(0.163429 -0.821613 0.05)
(0.184134 -0.925707 0.05)
(0.0733622 -0.216118 0.05)
(0.0917545 -0.2703 0.05)
(0.111632 -0.328857 0.05)
(0.133109 -0.392125 0.05)
(0.15631 -0.460475 0.05)
(0.181373 -0.534308 0.05)
(0.208446 -0.614061 0.05)
(0.237688 -0.700206 0.05)
(0.269273 -0.793253 0.05)
(0.303388 -0.893753 0.05)
(0.100944 -0.204693 0.05)
(0.126251 -0.256011 0.05)
(0.153601 -0.311473 0.05)
(0.183152 -0.371396 0.05)
(0.215077 -0.436133 0.05)
(0.249563 -0.506063 0.05)
(0.286814 -0.5816 0.05)
(0.32705 -0.663191 0.05)
(0.37051 -0.751319 0.05)
(0.417451 -0.846506 0.05)
(0.126798 -0.189766 0.05)
(0.158587 -0.237342 0.05)
(0.192943 -0.288759 0.05)
(0.230063 -0.344313 0.05)
(0.270164 -0.404329 0.05)
(0.313482 -0.469159 0.05)
(0.360274 -0.539188 0.05)
(0.410816 -0.614829 0.05)
(0.465407 -0.69653 0.05)
(0.524371 -0.784776 0.05)
(0.150483 -0.171593 0.05)
(0.18821 -0.214612 0.05)
(0.228982 -0.261104 0.05)
(0.273036 -0.311338 0.05)
(0.320628 -0.365606 0.05)
(0.372038 -0.424228 0.05)
(0.42757 -0.48755 0.05)
(0.487552 -0.555947 0.05)
(0.55234 -0.629824 0.05)
(0.622318 -0.709618 0.05)
(0.171593 -0.150483 0.05)
(0.214612 -0.18821 0.05)
(0.261104 -0.228982 0.05)
(0.311338 -0.273036 0.05)
(0.365606 -0.320628 0.05)
(0.424228 -0.372038 0.05)
(0.48755 -0.42757 0.05)
(0.555947 -0.487552 0.05)
(0.629824 -0.55234 0.05)
(0.709618 -0.622318 0.05)
(0.189766 -0.126798 0.05)
(0.237342 -0.158587 0.05)
(0.288759 -0.192943 0.05)
(0.344313 -0.230063 0.05)
(0.404329 -0.270164 0.05)
(0.469159 -0.313482 0.05)
(0.539188 -0.360274 0.05)
(0.614829 -0.410816 0.05)
(0.69653 -0.465407 0.05)
(0.784776 -0.524371 0.05)
(0.204693 -0.100944 0.05)
(0.256011 -0.126251 0.05)
(0.311473 -0.153601 0.05)
(0.371396 -0.183152 0.05)
(0.436133 -0.215077 0.05)
(0.506063 -0.249563 0.05)
(0.5816 -0.286814 0.05)
(0.663191 -0.32705 0.05)
(0.751319 -0.37051 0.05)
(0.846506 -0.417451 0.05)
(0.216118 -0.0733622 0.05)
(0.2703 -0.0917545 0.05)
(0.328857 -0.111632 0.05)
(0.392125 -0.133109 0.05)
(0.460475 -0.15631 0.05)
(0.534308 -0.181373 0.05)
(0.614061 -0.208446 0.05)
(0.700206 -0.237688 0.05)
(0.793253 -0.269273 0.05)
(0.893753 -0.303388 0.05)
(0.223845 -0.0445255 0.05)
(0.279964 -0.0556883 0.05)
(0.340614 -0.0677524 0.05)
(0.406145 -0.0807872 0.05)
(0.476938 -0.0948689 0.05)
(0.553411 -0.11008 0.05)
(0.636016 -0.126511 0.05)
(0.72524 -0.144259 0.05)
(0.821613 -0.163429 0.05)
(0.925707 -0.184134 0.05)
(0.227742 -0.014927 0.05)
(0.284838 -0.0186693 0.05)
(0.346544 -0.0227137 0.05)
(0.413215 -0.0270835 0.05)
(0.485241 -0.0318044 0.05)
(0.563045 -0.0369039 0.05)
(0.647088 -0.0424124 0.05)
(0.737865 -0.0483622 0.05)
(0.835916 -0.0547888 0.05)
(0.941821 -0.0617302 0.05)
)
;

boundaryField
{
    out
    {
        type            calculated;
        value           uniform (0 0 0);
    }
    in
    {
        type            calculated;
        value           uniform (0 0 0);
    }
    frontAndBack
    {
        type            empty;
    }
}


// ************************************************************************* //
