/*--------------------------------*- C++ -*----------------------------------*\
| =========                 |                                                 |
| \\      /  F ield         | foam-extend: Open Source CFD                    |
|  \\    /   O peration     | Version:  3.0                                   |
|   \\  /    A nd           | Web:         http://www.extend-project.de       |
|    \\/     M anipulation  |                                                 |
\*---------------------------------------------------------------------------*/
FoamFile
{
    version     2.0;
    format      ascii;
    class       volScalarField;
    location    "constant/polyMesh";
    object      Volumes;
}
// * * * * * * * * * * * * * * * * * * * * * * * * * * * * * * * * * * * * * //

dimensions      [0 3 0 0 0 0 0];

internalField   nonuniform List<scalar> 
480
(
0.000164013
0.000221832
0.000291723
0.000375889
0.000476921
0.000597855
0.000742251
0.000914283
0.00111884
0.00136165
0.000164013
0.000221832
0.000291723
0.000375889
0.000476921
0.000597855
0.000742251
0.000914283
0.00111884
0.00136165
0.000164013
0.000221832
0.000291723
0.000375889
0.000476921
0.000597855
0.000742251
0.000914283
0.00111884
0.00136165
0.000164013
0.000221832
0.000291723
0.000375889
0.000476921
0.000597855
0.000742251
0.000914283
0.00111884
0.00136165
0.000164013
0.000221832
0.000291723
0.000375889
0.000476921
0.000597855
0.000742251
0.000914283
0.00111884
0.00136165
0.000164013
0.000221832
0.000291723
0.000375889
0.000476921
0.000597855
0.000742251
0.000914283
0.00111884
0.00136165
0.000164013
0.000221832
0.000291723
0.000375889
0.000476921
0.000597855
0.000742251
0.000914283
0.00111884
0.00136165
0.000164013
0.000221832
0.000291723
0.000375889
0.000476921
0.000597855
0.000742251
0.000914283
0.00111884
0.00136165
0.000164013
0.000221832
0.000291723
0.000375889
0.000476921
0.000597855
0.000742251
0.000914283
0.00111884
0.00136165
0.000164013
0.000221832
0.000291723
0.000375889
0.000476921
0.000597855
0.000742251
0.000914283
0.00111884
0.00136165
0.000164013
0.000221832
0.000291723
0.000375889
0.000476921
0.000597855
0.000742251
0.000914283
0.00111884
0.00136165
0.000164013
0.000221832
0.000291723
0.000375889
0.000476921
0.000597855
0.000742251
0.000914283
0.00111884
0.00136165
0.000164013
0.000221832
0.000291723
0.000375889
0.000476921
0.000597855
0.000742251
0.000914283
0.00111884
0.00136165
0.000164013
0.000221832
0.000291723
0.000375889
0.000476921
0.000597855
0.000742251
0.000914283
0.00111884
0.00136165
0.000164013
0.000221832
0.000291723
0.000375889
0.000476921
0.000597855
0.000742251
0.000914283
0.00111884
0.00136165
0.000164013
0.000221832
0.000291723
0.000375889
0.000476921
0.000597855
0.000742251
0.000914283
0.00111884
0.00136165
0.000164013
0.000221832
0.000291723
0.000375889
0.000476921
0.000597855
0.000742251
0.000914283
0.00111884
0.00136165
0.000164013
0.000221832
0.000291723
0.000375889
0.000476921
0.000597855
0.000742251
0.000914283
0.00111884
0.00136165
0.000164013
0.000221832
0.000291723
0.000375889
0.000476921
0.000597855
0.000742251
0.000914283
0.00111884
0.00136165
0.000164013
0.000221832
0.000291723
0.000375889
0.000476921
0.000597855
0.000742251
0.000914283
0.00111884
0.00136165
0.000164013
0.000221832
0.000291723
0.000375889
0.000476921
0.000597855
0.000742251
0.000914283
0.00111884
0.00136165
0.000164013
0.000221832
0.000291723
0.000375889
0.000476921
0.000597855
0.000742251
0.000914283
0.00111884
0.00136165
0.000164013
0.000221832
0.000291723
0.000375889
0.000476921
0.000597855
0.000742251
0.000914283
0.00111884
0.00136165
0.000164013
0.000221832
0.000291723
0.000375889
0.000476921
0.000597855
0.000742251
0.000914283
0.00111884
0.00136165
0.000164013
0.000221832
0.000291723
0.000375889
0.000476921
0.000597855
0.000742251
0.000914283
0.00111884
0.00136165
0.000164013
0.000221832
0.000291723
0.000375889
0.000476921
0.000597855
0.000742251
0.000914283
0.00111884
0.00136165
0.000164013
0.000221832
0.000291723
0.000375889
0.000476921
0.000597855
0.000742251
0.000914283
0.00111884
0.00136165
0.000164013
0.000221832
0.000291723
0.000375889
0.000476921
0.000597855
0.000742251
0.000914283
0.00111884
0.00136165
0.000164013
0.000221832
0.000291723
0.000375889
0.000476921
0.000597855
0.000742251
0.000914283
0.00111884
0.00136165
0.000164013
0.000221832
0.000291723
0.000375889
0.000476921
0.000597855
0.000742251
0.000914283
0.00111884
0.00136165
0.000164013
0.000221832
0.000291723
0.000375889
0.000476921
0.000597855
0.000742251
0.000914283
0.00111884
0.00136165
0.000164013
0.000221832
0.000291723
0.000375889
0.000476921
0.000597855
0.000742251
0.000914283
0.00111884
0.00136165
0.000164013
0.000221832
0.000291723
0.000375889
0.000476921
0.000597855
0.000742251
0.000914283
0.00111884
0.00136165
0.000164013
0.000221832
0.000291723
0.000375889
0.000476921
0.000597855
0.000742251
0.000914283
0.00111884
0.00136165
0.000164013
0.000221832
0.000291723
0.000375889
0.000476921
0.000597855
0.000742251
0.000914283
0.00111884
0.00136165
0.000164013
0.000221832
0.000291723
0.000375889
0.000476921
0.000597855
0.000742251
0.000914283
0.00111884
0.00136165
0.000164013
0.000221832
0.000291723
0.000375889
0.000476921
0.000597855
0.000742251
0.000914283
0.00111884
0.00136165
0.000164013
0.000221832
0.000291723
0.000375889
0.000476921
0.000597855
0.000742251
0.000914283
0.00111884
0.00136165
0.000164013
0.000221832
0.000291723
0.000375889
0.000476921
0.000597855
0.000742251
0.000914283
0.00111884
0.00136165
0.000164013
0.000221832
0.000291723
0.000375889
0.000476921
0.000597855
0.000742251
0.000914283
0.00111884
0.00136165
0.000164013
0.000221832
0.000291723
0.000375889
0.000476921
0.000597855
0.000742251
0.000914283
0.00111884
0.00136165
0.000164013
0.000221832
0.000291723
0.000375889
0.000476921
0.000597855
0.000742251
0.000914283
0.00111884
0.00136165
0.000164013
0.000221832
0.000291723
0.000375889
0.000476921
0.000597855
0.000742251
0.000914283
0.00111884
0.00136165
0.000164013
0.000221832
0.000291723
0.000375889
0.000476921
0.000597855
0.000742251
0.000914283
0.00111884
0.00136165
0.000164013
0.000221832
0.000291723
0.000375889
0.000476921
0.000597855
0.000742251
0.000914283
0.00111884
0.00136165
0.000164013
0.000221832
0.000291723
0.000375889
0.000476921
0.000597855
0.000742251
0.000914283
0.00111884
0.00136165
0.000164013
0.000221832
0.000291723
0.000375889
0.000476921
0.000597855
0.000742251
0.000914283
0.00111884
0.00136165
0.000164013
0.000221832
0.000291723
0.000375889
0.000476921
0.000597855
0.000742251
0.000914283
0.00111884
0.00136165
)
;

boundaryField
{
    out
    {
        type            calculated;
        value           uniform 0;
    }
    in
    {
        type            calculated;
        value           uniform 0;
    }
    frontAndBack
    {
        type            empty;
    }
}


// ************************************************************************* //
