/*--------------------------------*- C++ -*----------------------------------*\
| =========                 |                                                 |
| \\      /  F ield         | foam-extend: Open Source CFD                    |
|  \\    /   O peration     | Version:  3.0                                   |
|   \\  /    A nd           | Web:         http://www.extend-project.de       |
|    \\/     M anipulation  |                                                 |
\*---------------------------------------------------------------------------*/
FoamFile
{
    version     2.0;
    format      ascii;
    class       volVector4Field;
    location    "0";
    object      block_sT;
}
// * * * * * * * * * * * * * * * * * * * * * * * * * * * * * * * * * * * * * //

dimensions      [0 0 0 0 0 0 0];

internalField   uniform (0 0 0 1);

boundaryField
{
    insideCircle
    {
        type            calculated;
        value           uniform (0 0 0 0);
    }
    outsideCircle
    {
        type            calculated;
        value           uniform (0 0 0 0);
    }
    topAndBottom
    {
        type            empty;
    }
}


// ************************************************************************* //
