/*--------------------------------*- C++ -*----------------------------------*\
| =========                 |                                                 |
| \\      /  F ield         | foam-extend: Open Source CFD                    |
|  \\    /   O peration     | Version:  3.0                                   |
|   \\  /    A nd           | Web:         http://www.extend-project.de       |
|    \\/     M anipulation  |                                                 |
\*---------------------------------------------------------------------------*/
FoamFile
{
    version     2.0;
    format      ascii;
    class       volVectorField;
    location    "constant/polyMesh";
    object      Centers;
}
// * * * * * * * * * * * * * * * * * * * * * * * * * * * * * * * * * * * * * //

dimensions      [0 0 0 0 0 0 0];

internalField   nonuniform List<vector> 
120
(
(0.254438 0.0334974 0.05)
(0.372439 0.0490325 0.05)
(0.513036 0.0675424 0.05)
(0.680375 0.0895731 0.05)
(0.879461 0.115783 0.05)
(0.237098 0.0982094 0.05)
(0.347058 0.143756 0.05)
(0.478073 0.198024 0.05)
(0.634009 0.262615 0.05)
(0.819527 0.339459 0.05)
(0.203601 0.156229 0.05)
(0.298025 0.228683 0.05)
(0.410531 0.315011 0.05)
(0.544436 0.41776 0.05)
(0.703744 0.540002 0.05)
(0.156229 0.203601 0.05)
(0.228683 0.298025 0.05)
(0.315011 0.410531 0.05)
(0.41776 0.544436 0.05)
(0.540002 0.703744 0.05)
(0.0982094 0.237098 0.05)
(0.143756 0.347058 0.05)
(0.198024 0.478073 0.05)
(0.262615 0.634009 0.05)
(0.339459 0.819527 0.05)
(0.0334974 0.254438 0.05)
(0.0490325 0.372439 0.05)
(0.0675424 0.513036 0.05)
(0.0895731 0.680375 0.05)
(0.115783 0.879461 0.05)
(-0.0334974 0.254438 0.05)
(-0.0490325 0.372439 0.05)
(-0.0675424 0.513036 0.05)
(-0.0895731 0.680375 0.05)
(-0.115783 0.879461 0.05)
(-0.0982094 0.237098 0.05)
(-0.143756 0.347058 0.05)
(-0.198024 0.478073 0.05)
(-0.262615 0.634009 0.05)
(-0.339459 0.819527 0.05)
(-0.156229 0.203601 0.05)
(-0.228683 0.298025 0.05)
(-0.315011 0.410531 0.05)
(-0.41776 0.544436 0.05)
(-0.540002 0.703744 0.05)
(-0.203601 0.156229 0.05)
(-0.298025 0.228683 0.05)
(-0.410531 0.315011 0.05)
(-0.544436 0.41776 0.05)
(-0.703744 0.540002 0.05)
(-0.237098 0.0982094 0.05)
(-0.347058 0.143756 0.05)
(-0.478073 0.198024 0.05)
(-0.634009 0.262615 0.05)
(-0.819527 0.339459 0.05)
(-0.254438 0.0334974 0.05)
(-0.372439 0.0490325 0.05)
(-0.513036 0.0675424 0.05)
(-0.680375 0.0895731 0.05)
(-0.879461 0.115783 0.05)
(-0.254438 -0.0334974 0.05)
(-0.372439 -0.0490325 0.05)
(-0.513036 -0.0675424 0.05)
(-0.680375 -0.0895731 0.05)
(-0.879461 -0.115783 0.05)
(-0.237098 -0.0982094 0.05)
(-0.347058 -0.143756 0.05)
(-0.478073 -0.198024 0.05)
(-0.634009 -0.262615 0.05)
(-0.819527 -0.339459 0.05)
(-0.203601 -0.156229 0.05)
(-0.298025 -0.228683 0.05)
(-0.410531 -0.315011 0.05)
(-0.544436 -0.41776 0.05)
(-0.703744 -0.540002 0.05)
(-0.156229 -0.203601 0.05)
(-0.228683 -0.298025 0.05)
(-0.315011 -0.410531 0.05)
(-0.41776 -0.544436 0.05)
(-0.540002 -0.703744 0.05)
(-0.0982094 -0.237098 0.05)
(-0.143756 -0.347058 0.05)
(-0.198024 -0.478073 0.05)
(-0.262615 -0.634009 0.05)
(-0.339459 -0.819527 0.05)
(-0.0334974 -0.254438 0.05)
(-0.0490325 -0.372439 0.05)
(-0.0675424 -0.513036 0.05)
(-0.0895731 -0.680375 0.05)
(-0.115783 -0.879461 0.05)
(0.0334974 -0.254438 0.05)
(0.0490325 -0.372439 0.05)
(0.0675424 -0.513036 0.05)
(0.0895731 -0.680375 0.05)
(0.115783 -0.879461 0.05)
(0.0982094 -0.237098 0.05)
(0.143756 -0.347058 0.05)
(0.198024 -0.478073 0.05)
(0.262615 -0.634009 0.05)
(0.339459 -0.819527 0.05)
(0.156229 -0.203601 0.05)
(0.228683 -0.298025 0.05)
(0.315011 -0.410531 0.05)
(0.41776 -0.544436 0.05)
(0.540002 -0.703744 0.05)
(0.203601 -0.156229 0.05)
(0.298025 -0.228683 0.05)
(0.410531 -0.315011 0.05)
(0.544436 -0.41776 0.05)
(0.703744 -0.540002 0.05)
(0.237098 -0.0982094 0.05)
(0.347058 -0.143756 0.05)
(0.478073 -0.198024 0.05)
(0.634009 -0.262615 0.05)
(0.819527 -0.339459 0.05)
(0.254438 -0.0334974 0.05)
(0.372439 -0.0490325 0.05)
(0.513036 -0.0675424 0.05)
(0.680375 -0.0895731 0.05)
(0.879461 -0.115783 0.05)
)
;

boundaryField
{
    out
    {
        type            calculated;
        value           uniform (0 0 0);
    }
    in
    {
        type            calculated;
        value           uniform (0 0 0);
    }
    frontAndBack
    {
        type            empty;
    }
}


// ************************************************************************* //
