/*--------------------------------*- C++ -*----------------------------------*\
| =========                 |                                                 |
| \\      /  F ield         | foam-extend: Open Source CFD                    |
|  \\    /   O peration     | Version:  3.0                                   |
|   \\  /    A nd           | Web:         http://www.extend-project.de       |
|    \\/     M anipulation  |                                                 |
\*---------------------------------------------------------------------------*/
FoamFile
{
    version     2.0;
    format      ascii;
    class       volScalarField;
    location    "constant/polyMesh";
    object      Volumes;
}
// * * * * * * * * * * * * * * * * * * * * * * * * * * * * * * * * * * * * * //

dimensions      [0 3 0 0 0 0 0];

internalField   nonuniform List<scalar> 
120
(
0.000724475
0.00126781
0.00208223
0.00328873
0.00506006
0.000724475
0.00126781
0.00208223
0.00328873
0.00506006
0.000724475
0.00126781
0.00208223
0.00328873
0.00506006
0.000724475
0.00126781
0.00208223
0.00328873
0.00506006
0.000724475
0.00126781
0.00208223
0.00328873
0.00506006
0.000724475
0.00126781
0.00208223
0.00328873
0.00506006
0.000724475
0.00126781
0.00208223
0.00328873
0.00506006
0.000724475
0.00126781
0.00208223
0.00328873
0.00506006
0.000724475
0.00126781
0.00208223
0.00328873
0.00506006
0.000724475
0.00126781
0.00208223
0.00328873
0.00506006
0.000724475
0.00126781
0.00208223
0.00328873
0.00506006
0.000724475
0.00126781
0.00208223
0.00328873
0.00506006
0.000724475
0.00126781
0.00208223
0.00328873
0.00506006
0.000724475
0.00126781
0.00208223
0.00328873
0.00506006
0.000724475
0.00126781
0.00208223
0.00328873
0.00506006
0.000724475
0.00126781
0.00208223
0.00328873
0.00506006
0.000724475
0.00126781
0.00208223
0.00328873
0.00506006
0.000724475
0.00126781
0.00208223
0.00328873
0.00506006
0.000724475
0.00126781
0.00208223
0.00328873
0.00506006
0.000724475
0.00126781
0.00208223
0.00328873
0.00506006
0.000724475
0.00126781
0.00208223
0.00328873
0.00506006
0.000724475
0.00126781
0.00208223
0.00328873
0.00506006
0.000724475
0.00126781
0.00208223
0.00328873
0.00506006
0.000724475
0.00126781
0.00208223
0.00328873
0.00506006
)
;

boundaryField
{
    out
    {
        type            calculated;
        value           uniform 0;
    }
    in
    {
        type            calculated;
        value           uniform 0;
    }
    frontAndBack
    {
        type            empty;
    }
}


// ************************************************************************* //
