/*--------------------------------*- C++ -*----------------------------------*\
| =========                 |                                                 |
| \\      /  F ield         | OpenFOAM: The Open Source CFD Toolbox           |
|  \\    /   O peration     | Version:  1.7.1                                 |
|   \\  /    A nd           | Web:      www.OpenFOAM.com                      |
|    \\/     M anipulation  |                                                 |
\*---------------------------------------------------------------------------*/
FoamFile
{
    version     2.0;
    format      ascii;
    class       volScalarField;
    object      p;
}
// * * * * * * * * * * * * * * * * * * * * * * * * * * * * * * * * * * * * * //

dimensions      [0 0 0 0 0 0 0];

internalField   uniform 1;

boundaryField
{
	 outsideCircle 
    {
        type            zeroGradient;//myPressure;//implicitExtrapolation;
        value           uniform 1;
    }
    insideCircle
    {
        type            zeroGradient;//myPressure;//implicitExtrapolation;
        value           uniform 1;
    }
    frontAndBack
    {
       type            empty;
    }

}

// ************************************************************************* //
