/*--------------------------------*- C++ -*----------------------------------*\
| =========                 |                                                 |
| \\      /  F ield         | foam-extend: Open Source CFD                    |
|  \\    /   O peration     | Version:  3.0                                   |
|   \\  /    A nd           | Web:         http://www.extend-project.de       |
|    \\/     M anipulation  |                                                 |
\*---------------------------------------------------------------------------*/
FoamFile
{
    version     2.0;
    format      ascii;
    class       volVectorField;
    location    "constant/polyMesh";
    object      Centers;
}
// * * * * * * * * * * * * * * * * * * * * * * * * * * * * * * * * * * * * * //

dimensions      [0 0 0 0 0 0 0];

internalField   nonuniform List<vector> 
576
(
(0.222856 0.0146068 0.05)
(0.270143 0.0177061 0.05)
(0.320526 0.0210084 0.05)
(0.374201 0.0245265 0.05)
(0.431378 0.028274 0.05)
(0.492281 0.0322658 0.05)
(0.557152 0.0365176 0.05)
(0.626246 0.0410463 0.05)
(0.699837 0.0458698 0.05)
(0.778219 0.0510071 0.05)
(0.8617 0.0564788 0.05)
(0.950614 0.0623065 0.05)
(0.219043 0.0435704 0.05)
(0.26552 0.0528153 0.05)
(0.315042 0.0626657 0.05)
(0.367799 0.0731597 0.05)
(0.423997 0.0843383 0.05)
(0.483858 0.0962454 0.05)
(0.547619 0.108928 0.05)
(0.61553 0.122437 0.05)
(0.687863 0.136824 0.05)
(0.764903 0.152149 0.05)
(0.846956 0.16847 0.05)
(0.934348 0.185853 0.05)
(0.211482 0.0717886 0.05)
(0.256355 0.0870208 0.05)
(0.304167 0.103251 0.05)
(0.355103 0.120541 0.05)
(0.409361 0.138959 0.05)
(0.467156 0.158578 0.05)
(0.528716 0.179475 0.05)
(0.594283 0.201732 0.05)
(0.664119 0.225438 0.05)
(0.7385 0.250687 0.05)
(0.817721 0.277579 0.05)
(0.902096 0.30622 0.05)
(0.200303 0.0987784 0.05)
(0.242803 0.119737 0.05)
(0.288088 0.142069 0.05)
(0.336331 0.16586 0.05)
(0.387721 0.191203 0.05)
(0.442461 0.218198 0.05)
(0.500766 0.246951 0.05)
(0.562868 0.277576 0.05)
(0.629012 0.310194 0.05)
(0.699461 0.344936 0.05)
(0.774494 0.381938 0.05)
(0.854409 0.421348 0.05)
(0.185696 0.124078 0.05)
(0.225097 0.150405 0.05)
(0.26708 0.178457 0.05)
(0.311805 0.208341 0.05)
(0.359447 0.240175 0.05)
(0.410195 0.274084 0.05)
(0.464249 0.310201 0.05)
(0.521822 0.34867 0.05)
(0.583142 0.389643 0.05)
(0.648453 0.433283 0.05)
(0.718015 0.479762 0.05)
(0.792102 0.529266 0.05)
(0.167912 0.147255 0.05)
(0.20354 0.1785 0.05)
(0.241501 0.211791 0.05)
(0.281943 0.247257 0.05)
(0.325023 0.285038 0.05)
(0.370911 0.32528 0.05)
(0.419788 0.368144 0.05)
(0.471847 0.413798 0.05)
(0.527295 0.462425 0.05)
(0.586351 0.514216 0.05)
(0.649251 0.569377 0.05)
(0.716243 0.628128 0.05)
(0.147255 0.167912 0.05)
(0.1785 0.20354 0.05)
(0.211791 0.241501 0.05)
(0.247257 0.281943 0.05)
(0.285038 0.325023 0.05)
(0.32528 0.370911 0.05)
(0.368144 0.419788 0.05)
(0.413798 0.471847 0.05)
(0.462425 0.527295 0.05)
(0.514216 0.586351 0.05)
(0.569377 0.649251 0.05)
(0.628128 0.716243 0.05)
(0.124078 0.185696 0.05)
(0.150405 0.225097 0.05)
(0.178457 0.26708 0.05)
(0.208341 0.311805 0.05)
(0.240175 0.359447 0.05)
(0.274084 0.410195 0.05)
(0.310201 0.464249 0.05)
(0.34867 0.521822 0.05)
(0.389643 0.583142 0.05)
(0.433283 0.648453 0.05)
(0.479762 0.718015 0.05)
(0.529266 0.792102 0.05)
(0.0987784 0.200303 0.05)
(0.119737 0.242803 0.05)
(0.142069 0.288088 0.05)
(0.16586 0.336331 0.05)
(0.191203 0.387721 0.05)
(0.218198 0.442461 0.05)
(0.246951 0.500766 0.05)
(0.277576 0.562868 0.05)
(0.310194 0.629012 0.05)
(0.344936 0.699461 0.05)
(0.381938 0.774494 0.05)
(0.421348 0.854409 0.05)
(0.0717886 0.211482 0.05)
(0.0870208 0.256355 0.05)
(0.103251 0.304167 0.05)
(0.120541 0.355103 0.05)
(0.138959 0.409361 0.05)
(0.158578 0.467156 0.05)
(0.179475 0.528716 0.05)
(0.201732 0.594283 0.05)
(0.225438 0.664119 0.05)
(0.250687 0.7385 0.05)
(0.277579 0.817721 0.05)
(0.30622 0.902096 0.05)
(0.0435704 0.219043 0.05)
(0.0528153 0.26552 0.05)
(0.0626657 0.315042 0.05)
(0.0731597 0.367799 0.05)
(0.0843383 0.423997 0.05)
(0.0962454 0.483858 0.05)
(0.108928 0.547619 0.05)
(0.122437 0.61553 0.05)
(0.136824 0.687863 0.05)
(0.152149 0.764903 0.05)
(0.16847 0.846956 0.05)
(0.185853 0.934348 0.05)
(0.0146068 0.222856 0.05)
(0.0177061 0.270143 0.05)
(0.0210084 0.320526 0.05)
(0.0245265 0.374201 0.05)
(0.028274 0.431378 0.05)
(0.0322658 0.492281 0.05)
(0.0365176 0.557152 0.05)
(0.0410463 0.626246 0.05)
(0.0458698 0.699837 0.05)
(0.0510071 0.778219 0.05)
(0.0564788 0.8617 0.05)
(0.0623065 0.950614 0.05)
(-0.0146068 0.222856 0.05)
(-0.0177061 0.270143 0.05)
(-0.0210084 0.320526 0.05)
(-0.0245265 0.374201 0.05)
(-0.028274 0.431378 0.05)
(-0.0322658 0.492281 0.05)
(-0.0365176 0.557152 0.05)
(-0.0410463 0.626246 0.05)
(-0.0458698 0.699837 0.05)
(-0.0510071 0.778219 0.05)
(-0.0564788 0.8617 0.05)
(-0.0623065 0.950614 0.05)
(-0.0435704 0.219043 0.05)
(-0.0528153 0.26552 0.05)
(-0.0626657 0.315042 0.05)
(-0.0731597 0.367799 0.05)
(-0.0843383 0.423997 0.05)
(-0.0962454 0.483858 0.05)
(-0.108928 0.547619 0.05)
(-0.122437 0.61553 0.05)
(-0.136824 0.687863 0.05)
(-0.152149 0.764903 0.05)
(-0.16847 0.846956 0.05)
(-0.185853 0.934348 0.05)
(-0.0717886 0.211482 0.05)
(-0.0870208 0.256355 0.05)
(-0.103251 0.304167 0.05)
(-0.120541 0.355103 0.05)
(-0.138959 0.409361 0.05)
(-0.158578 0.467156 0.05)
(-0.179475 0.528716 0.05)
(-0.201732 0.594283 0.05)
(-0.225438 0.664119 0.05)
(-0.250687 0.7385 0.05)
(-0.277579 0.817721 0.05)
(-0.30622 0.902096 0.05)
(-0.0987784 0.200303 0.05)
(-0.119737 0.242803 0.05)
(-0.142069 0.288088 0.05)
(-0.16586 0.336331 0.05)
(-0.191203 0.387721 0.05)
(-0.218198 0.442461 0.05)
(-0.246951 0.500766 0.05)
(-0.277576 0.562868 0.05)
(-0.310194 0.629012 0.05)
(-0.344936 0.699461 0.05)
(-0.381938 0.774494 0.05)
(-0.421348 0.854409 0.05)
(-0.124078 0.185696 0.05)
(-0.150405 0.225097 0.05)
(-0.178457 0.26708 0.05)
(-0.208341 0.311805 0.05)
(-0.240175 0.359447 0.05)
(-0.274084 0.410195 0.05)
(-0.310201 0.464249 0.05)
(-0.34867 0.521822 0.05)
(-0.389643 0.583142 0.05)
(-0.433283 0.648453 0.05)
(-0.479762 0.718015 0.05)
(-0.529266 0.792102 0.05)
(-0.147255 0.167912 0.05)
(-0.1785 0.20354 0.05)
(-0.211791 0.241501 0.05)
(-0.247257 0.281943 0.05)
(-0.285038 0.325023 0.05)
(-0.32528 0.370911 0.05)
(-0.368144 0.419788 0.05)
(-0.413798 0.471847 0.05)
(-0.462425 0.527295 0.05)
(-0.514216 0.586351 0.05)
(-0.569377 0.649251 0.05)
(-0.628128 0.716243 0.05)
(-0.167912 0.147255 0.05)
(-0.20354 0.1785 0.05)
(-0.241501 0.211791 0.05)
(-0.281943 0.247257 0.05)
(-0.325023 0.285038 0.05)
(-0.370911 0.32528 0.05)
(-0.419788 0.368144 0.05)
(-0.471847 0.413798 0.05)
(-0.527295 0.462425 0.05)
(-0.586351 0.514216 0.05)
(-0.649251 0.569377 0.05)
(-0.716243 0.628128 0.05)
(-0.185696 0.124078 0.05)
(-0.225097 0.150405 0.05)
(-0.26708 0.178457 0.05)
(-0.311805 0.208341 0.05)
(-0.359447 0.240175 0.05)
(-0.410195 0.274084 0.05)
(-0.464249 0.310201 0.05)
(-0.521822 0.34867 0.05)
(-0.583142 0.389643 0.05)
(-0.648453 0.433283 0.05)
(-0.718015 0.479762 0.05)
(-0.792102 0.529266 0.05)
(-0.200303 0.0987784 0.05)
(-0.242803 0.119737 0.05)
(-0.288088 0.142069 0.05)
(-0.336331 0.16586 0.05)
(-0.387721 0.191203 0.05)
(-0.442461 0.218198 0.05)
(-0.500766 0.246951 0.05)
(-0.562868 0.277576 0.05)
(-0.629012 0.310194 0.05)
(-0.699461 0.344936 0.05)
(-0.774494 0.381938 0.05)
(-0.854409 0.421348 0.05)
(-0.211482 0.0717886 0.05)
(-0.256355 0.0870208 0.05)
(-0.304167 0.103251 0.05)
(-0.355103 0.120541 0.05)
(-0.409361 0.138959 0.05)
(-0.467156 0.158578 0.05)
(-0.528716 0.179475 0.05)
(-0.594283 0.201732 0.05)
(-0.664119 0.225438 0.05)
(-0.7385 0.250687 0.05)
(-0.817721 0.277579 0.05)
(-0.902096 0.30622 0.05)
(-0.219043 0.0435704 0.05)
(-0.26552 0.0528153 0.05)
(-0.315042 0.0626657 0.05)
(-0.367799 0.0731597 0.05)
(-0.423997 0.0843383 0.05)
(-0.483858 0.0962454 0.05)
(-0.547619 0.108928 0.05)
(-0.61553 0.122437 0.05)
(-0.687863 0.136824 0.05)
(-0.764903 0.152149 0.05)
(-0.846956 0.16847 0.05)
(-0.934348 0.185853 0.05)
(-0.222856 0.0146068 0.05)
(-0.270143 0.0177061 0.05)
(-0.320526 0.0210084 0.05)
(-0.374201 0.0245265 0.05)
(-0.431378 0.028274 0.05)
(-0.492281 0.0322658 0.05)
(-0.557152 0.0365176 0.05)
(-0.626246 0.0410463 0.05)
(-0.699837 0.0458698 0.05)
(-0.778219 0.0510071 0.05)
(-0.8617 0.0564788 0.05)
(-0.950614 0.0623065 0.05)
(-0.222856 -0.0146068 0.05)
(-0.270143 -0.0177061 0.05)
(-0.320526 -0.0210084 0.05)
(-0.374201 -0.0245265 0.05)
(-0.431378 -0.028274 0.05)
(-0.492281 -0.0322658 0.05)
(-0.557152 -0.0365176 0.05)
(-0.626246 -0.0410463 0.05)
(-0.699837 -0.0458698 0.05)
(-0.778219 -0.0510071 0.05)
(-0.8617 -0.0564788 0.05)
(-0.950614 -0.0623065 0.05)
(-0.219043 -0.0435704 0.05)
(-0.26552 -0.0528153 0.05)
(-0.315042 -0.0626657 0.05)
(-0.367799 -0.0731597 0.05)
(-0.423997 -0.0843383 0.05)
(-0.483858 -0.0962454 0.05)
(-0.547619 -0.108928 0.05)
(-0.61553 -0.122437 0.05)
(-0.687863 -0.136824 0.05)
(-0.764903 -0.152149 0.05)
(-0.846956 -0.16847 0.05)
(-0.934348 -0.185853 0.05)
(-0.211482 -0.0717886 0.05)
(-0.256355 -0.0870208 0.05)
(-0.304167 -0.103251 0.05)
(-0.355103 -0.120541 0.05)
(-0.409361 -0.138959 0.05)
(-0.467156 -0.158578 0.05)
(-0.528716 -0.179475 0.05)
(-0.594283 -0.201732 0.05)
(-0.664119 -0.225438 0.05)
(-0.7385 -0.250687 0.05)
(-0.817721 -0.277579 0.05)
(-0.902096 -0.30622 0.05)
(-0.200303 -0.0987784 0.05)
(-0.242803 -0.119737 0.05)
(-0.288088 -0.142069 0.05)
(-0.336331 -0.16586 0.05)
(-0.387721 -0.191203 0.05)
(-0.442461 -0.218198 0.05)
(-0.500766 -0.246951 0.05)
(-0.562868 -0.277576 0.05)
(-0.629012 -0.310194 0.05)
(-0.699461 -0.344936 0.05)
(-0.774494 -0.381938 0.05)
(-0.854409 -0.421348 0.05)
(-0.185696 -0.124078 0.05)
(-0.225097 -0.150405 0.05)
(-0.26708 -0.178457 0.05)
(-0.311805 -0.208341 0.05)
(-0.359447 -0.240175 0.05)
(-0.410195 -0.274084 0.05)
(-0.464249 -0.310201 0.05)
(-0.521822 -0.34867 0.05)
(-0.583142 -0.389643 0.05)
(-0.648453 -0.433283 0.05)
(-0.718015 -0.479762 0.05)
(-0.792102 -0.529266 0.05)
(-0.167912 -0.147255 0.05)
(-0.20354 -0.1785 0.05)
(-0.241501 -0.211791 0.05)
(-0.281943 -0.247257 0.05)
(-0.325023 -0.285038 0.05)
(-0.370911 -0.32528 0.05)
(-0.419788 -0.368144 0.05)
(-0.471847 -0.413798 0.05)
(-0.527295 -0.462425 0.05)
(-0.586351 -0.514216 0.05)
(-0.649251 -0.569377 0.05)
(-0.716243 -0.628128 0.05)
(-0.147255 -0.167912 0.05)
(-0.1785 -0.20354 0.05)
(-0.211791 -0.241501 0.05)
(-0.247257 -0.281943 0.05)
(-0.285038 -0.325023 0.05)
(-0.32528 -0.370911 0.05)
(-0.368144 -0.419788 0.05)
(-0.413798 -0.471847 0.05)
(-0.462425 -0.527295 0.05)
(-0.514216 -0.586351 0.05)
(-0.569377 -0.649251 0.05)
(-0.628128 -0.716243 0.05)
(-0.124078 -0.185696 0.05)
(-0.150405 -0.225097 0.05)
(-0.178457 -0.26708 0.05)
(-0.208341 -0.311805 0.05)
(-0.240175 -0.359447 0.05)
(-0.274084 -0.410195 0.05)
(-0.310201 -0.464249 0.05)
(-0.34867 -0.521822 0.05)
(-0.389643 -0.583142 0.05)
(-0.433283 -0.648453 0.05)
(-0.479762 -0.718015 0.05)
(-0.529266 -0.792102 0.05)
(-0.0987784 -0.200303 0.05)
(-0.119737 -0.242803 0.05)
(-0.142069 -0.288088 0.05)
(-0.16586 -0.336331 0.05)
(-0.191203 -0.387721 0.05)
(-0.218198 -0.442461 0.05)
(-0.246951 -0.500766 0.05)
(-0.277576 -0.562868 0.05)
(-0.310194 -0.629012 0.05)
(-0.344936 -0.699461 0.05)
(-0.381938 -0.774494 0.05)
(-0.421348 -0.854409 0.05)
(-0.0717886 -0.211482 0.05)
(-0.0870208 -0.256355 0.05)
(-0.103251 -0.304167 0.05)
(-0.120541 -0.355103 0.05)
(-0.138959 -0.409361 0.05)
(-0.158578 -0.467156 0.05)
(-0.179475 -0.528716 0.05)
(-0.201732 -0.594283 0.05)
(-0.225438 -0.664119 0.05)
(-0.250687 -0.7385 0.05)
(-0.277579 -0.817721 0.05)
(-0.30622 -0.902096 0.05)
(-0.0435704 -0.219043 0.05)
(-0.0528153 -0.26552 0.05)
(-0.0626657 -0.315042 0.05)
(-0.0731597 -0.367799 0.05)
(-0.0843383 -0.423997 0.05)
(-0.0962454 -0.483858 0.05)
(-0.108928 -0.547619 0.05)
(-0.122437 -0.61553 0.05)
(-0.136824 -0.687863 0.05)
(-0.152149 -0.764903 0.05)
(-0.16847 -0.846956 0.05)
(-0.185853 -0.934348 0.05)
(-0.0146068 -0.222856 0.05)
(-0.0177061 -0.270143 0.05)
(-0.0210084 -0.320526 0.05)
(-0.0245265 -0.374201 0.05)
(-0.028274 -0.431378 0.05)
(-0.0322658 -0.492281 0.05)
(-0.0365176 -0.557152 0.05)
(-0.0410463 -0.626246 0.05)
(-0.0458698 -0.699837 0.05)
(-0.0510071 -0.778219 0.05)
(-0.0564788 -0.8617 0.05)
(-0.0623065 -0.950614 0.05)
(0.0146068 -0.222856 0.05)
(0.0177061 -0.270143 0.05)
(0.0210084 -0.320526 0.05)
(0.0245265 -0.374201 0.05)
(0.028274 -0.431378 0.05)
(0.0322658 -0.492281 0.05)
(0.0365176 -0.557152 0.05)
(0.0410463 -0.626246 0.05)
(0.0458698 -0.699837 0.05)
(0.0510071 -0.778219 0.05)
(0.0564788 -0.8617 0.05)
(0.0623065 -0.950614 0.05)
(0.0435704 -0.219043 0.05)
(0.0528153 -0.26552 0.05)
(0.0626657 -0.315042 0.05)
(0.0731597 -0.367799 0.05)
(0.0843383 -0.423997 0.05)
(0.0962454 -0.483858 0.05)
(0.108928 -0.547619 0.05)
(0.122437 -0.61553 0.05)
(0.136824 -0.687863 0.05)
(0.152149 -0.764903 0.05)
(0.16847 -0.846956 0.05)
(0.185853 -0.934348 0.05)
(0.0717886 -0.211482 0.05)
(0.0870208 -0.256355 0.05)
(0.103251 -0.304167 0.05)
(0.120541 -0.355103 0.05)
(0.138959 -0.409361 0.05)
(0.158578 -0.467156 0.05)
(0.179475 -0.528716 0.05)
(0.201732 -0.594283 0.05)
(0.225438 -0.664119 0.05)
(0.250687 -0.7385 0.05)
(0.277579 -0.817721 0.05)
(0.30622 -0.902096 0.05)
(0.0987784 -0.200303 0.05)
(0.119737 -0.242803 0.05)
(0.142069 -0.288088 0.05)
(0.16586 -0.336331 0.05)
(0.191203 -0.387721 0.05)
(0.218198 -0.442461 0.05)
(0.246951 -0.500766 0.05)
(0.277576 -0.562868 0.05)
(0.310194 -0.629012 0.05)
(0.344936 -0.699461 0.05)
(0.381938 -0.774494 0.05)
(0.421348 -0.854409 0.05)
(0.124078 -0.185696 0.05)
(0.150405 -0.225097 0.05)
(0.178457 -0.26708 0.05)
(0.208341 -0.311805 0.05)
(0.240175 -0.359447 0.05)
(0.274084 -0.410195 0.05)
(0.310201 -0.464249 0.05)
(0.34867 -0.521822 0.05)
(0.389643 -0.583142 0.05)
(0.433283 -0.648453 0.05)
(0.479762 -0.718015 0.05)
(0.529266 -0.792102 0.05)
(0.147255 -0.167912 0.05)
(0.1785 -0.20354 0.05)
(0.211791 -0.241501 0.05)
(0.247257 -0.281943 0.05)
(0.285038 -0.325023 0.05)
(0.32528 -0.370911 0.05)
(0.368144 -0.419788 0.05)
(0.413798 -0.471847 0.05)
(0.462425 -0.527295 0.05)
(0.514216 -0.586351 0.05)
(0.569377 -0.649251 0.05)
(0.628128 -0.716243 0.05)
(0.167912 -0.147255 0.05)
(0.20354 -0.1785 0.05)
(0.241501 -0.211791 0.05)
(0.281943 -0.247257 0.05)
(0.325023 -0.285038 0.05)
(0.370911 -0.32528 0.05)
(0.419788 -0.368144 0.05)
(0.471847 -0.413798 0.05)
(0.527295 -0.462425 0.05)
(0.586351 -0.514216 0.05)
(0.649251 -0.569377 0.05)
(0.716243 -0.628128 0.05)
(0.185696 -0.124078 0.05)
(0.225097 -0.150405 0.05)
(0.26708 -0.178457 0.05)
(0.311805 -0.208341 0.05)
(0.359447 -0.240175 0.05)
(0.410195 -0.274084 0.05)
(0.464249 -0.310201 0.05)
(0.521822 -0.34867 0.05)
(0.583142 -0.389643 0.05)
(0.648453 -0.433283 0.05)
(0.718015 -0.479762 0.05)
(0.792102 -0.529266 0.05)
(0.200303 -0.0987784 0.05)
(0.242803 -0.119737 0.05)
(0.288088 -0.142069 0.05)
(0.336331 -0.16586 0.05)
(0.387721 -0.191203 0.05)
(0.442461 -0.218198 0.05)
(0.500766 -0.246951 0.05)
(0.562868 -0.277576 0.05)
(0.629012 -0.310194 0.05)
(0.699461 -0.344936 0.05)
(0.774494 -0.381938 0.05)
(0.854409 -0.421348 0.05)
(0.211482 -0.0717886 0.05)
(0.256355 -0.0870208 0.05)
(0.304167 -0.103251 0.05)
(0.355103 -0.120541 0.05)
(0.409361 -0.138959 0.05)
(0.467156 -0.158578 0.05)
(0.528716 -0.179475 0.05)
(0.594283 -0.201732 0.05)
(0.664119 -0.225438 0.05)
(0.7385 -0.250687 0.05)
(0.817721 -0.277579 0.05)
(0.902096 -0.30622 0.05)
(0.219043 -0.0435704 0.05)
(0.26552 -0.0528153 0.05)
(0.315042 -0.0626657 0.05)
(0.367799 -0.0731597 0.05)
(0.423997 -0.0843383 0.05)
(0.483858 -0.0962454 0.05)
(0.547619 -0.108928 0.05)
(0.61553 -0.122437 0.05)
(0.687863 -0.136824 0.05)
(0.764903 -0.152149 0.05)
(0.846956 -0.16847 0.05)
(0.934348 -0.185853 0.05)
(0.222856 -0.0146068 0.05)
(0.270143 -0.0177061 0.05)
(0.320526 -0.0210084 0.05)
(0.374201 -0.0245265 0.05)
(0.431378 -0.028274 0.05)
(0.492281 -0.0322658 0.05)
(0.557152 -0.0365176 0.05)
(0.626246 -0.0410463 0.05)
(0.699837 -0.0458698 0.05)
(0.778219 -0.0510071 0.05)
(0.8617 -0.0564788 0.05)
(0.950614 -0.0623065 0.05)
)
;

boundaryField
{
    out
    {
        type            calculated;
        value           uniform (0 0 0);
    }
    in
    {
        type            calculated;
        value           uniform (0 0 0);
    }
    frontAndBack
    {
        type            empty;
    }
}


// ************************************************************************* //
