/*--------------------------------*- C++ -*----------------------------------*\
| =========                 |                                                 |
| \\      /  F ield         | foam-extend: Open Source CFD                    |
|  \\    /   O peration     | Version:  3.0                                   |
|   \\  /    A nd           | Web:         http://www.extend-project.de       |
|    \\/     M anipulation  |                                                 |
\*---------------------------------------------------------------------------*/
FoamFile
{
    version     2.0;
    format      ascii;
    class       volScalarField;
    location    "constant/polyMesh";
    object      Volumes;
}
// * * * * * * * * * * * * * * * * * * * * * * * * * * * * * * * * * * * * * //

dimensions      [0 3 0 0 0 0 0];

internalField   nonuniform List<scalar> 
576
(
0.000134033
0.000173181
0.000218961
0.000272356
0.000334482
0.000406613
0.000490203
0.000586904
0.000698601
0.000827437
0.000975855
0.00114663
0.000134033
0.000173181
0.000218961
0.000272356
0.000334482
0.000406613
0.000490203
0.000586904
0.000698601
0.000827437
0.000975855
0.00114663
0.000134033
0.000173181
0.000218961
0.000272356
0.000334482
0.000406613
0.000490203
0.000586904
0.000698601
0.000827437
0.000975855
0.00114663
0.000134033
0.000173181
0.000218961
0.000272356
0.000334482
0.000406613
0.000490203
0.000586904
0.000698601
0.000827437
0.000975855
0.00114663
0.000134033
0.000173181
0.000218961
0.000272356
0.000334482
0.000406613
0.000490203
0.000586904
0.000698601
0.000827437
0.000975855
0.00114663
0.000134033
0.000173181
0.000218961
0.000272356
0.000334482
0.000406613
0.000490203
0.000586904
0.000698601
0.000827437
0.000975855
0.00114663
0.000134033
0.000173181
0.000218961
0.000272356
0.000334482
0.000406613
0.000490203
0.000586904
0.000698601
0.000827437
0.000975855
0.00114663
0.000134033
0.000173181
0.000218961
0.000272356
0.000334482
0.000406613
0.000490203
0.000586904
0.000698601
0.000827437
0.000975855
0.00114663
0.000134033
0.000173181
0.000218961
0.000272356
0.000334482
0.000406613
0.000490203
0.000586904
0.000698601
0.000827437
0.000975855
0.00114663
0.000134033
0.000173181
0.000218961
0.000272356
0.000334482
0.000406613
0.000490203
0.000586904
0.000698601
0.000827437
0.000975855
0.00114663
0.000134033
0.000173181
0.000218961
0.000272356
0.000334482
0.000406613
0.000490203
0.000586904
0.000698601
0.000827437
0.000975855
0.00114663
0.000134033
0.000173181
0.000218961
0.000272356
0.000334482
0.000406613
0.000490203
0.000586904
0.000698601
0.000827437
0.000975855
0.00114663
0.000134033
0.000173181
0.000218961
0.000272356
0.000334482
0.000406613
0.000490203
0.000586904
0.000698601
0.000827437
0.000975855
0.00114663
0.000134033
0.000173181
0.000218961
0.000272356
0.000334482
0.000406613
0.000490203
0.000586904
0.000698601
0.000827437
0.000975855
0.00114663
0.000134033
0.000173181
0.000218961
0.000272356
0.000334482
0.000406613
0.000490203
0.000586904
0.000698601
0.000827437
0.000975855
0.00114663
0.000134033
0.000173181
0.000218961
0.000272356
0.000334482
0.000406613
0.000490203
0.000586904
0.000698601
0.000827437
0.000975855
0.00114663
0.000134033
0.000173181
0.000218961
0.000272356
0.000334482
0.000406613
0.000490203
0.000586904
0.000698601
0.000827437
0.000975855
0.00114663
0.000134033
0.000173181
0.000218961
0.000272356
0.000334482
0.000406613
0.000490203
0.000586904
0.000698601
0.000827437
0.000975855
0.00114663
0.000134033
0.000173181
0.000218961
0.000272356
0.000334482
0.000406613
0.000490203
0.000586904
0.000698601
0.000827437
0.000975855
0.00114663
0.000134033
0.000173181
0.000218961
0.000272356
0.000334482
0.000406613
0.000490203
0.000586904
0.000698601
0.000827437
0.000975855
0.00114663
0.000134033
0.000173181
0.000218961
0.000272356
0.000334482
0.000406613
0.000490203
0.000586904
0.000698601
0.000827437
0.000975855
0.00114663
0.000134033
0.000173181
0.000218961
0.000272356
0.000334482
0.000406613
0.000490203
0.000586904
0.000698601
0.000827437
0.000975855
0.00114663
0.000134033
0.000173181
0.000218961
0.000272356
0.000334482
0.000406613
0.000490203
0.000586904
0.000698601
0.000827437
0.000975855
0.00114663
0.000134033
0.000173181
0.000218961
0.000272356
0.000334482
0.000406613
0.000490203
0.000586904
0.000698601
0.000827437
0.000975855
0.00114663
0.000134033
0.000173181
0.000218961
0.000272356
0.000334482
0.000406613
0.000490203
0.000586904
0.000698601
0.000827437
0.000975855
0.00114663
0.000134033
0.000173181
0.000218961
0.000272356
0.000334482
0.000406613
0.000490203
0.000586904
0.000698601
0.000827437
0.000975855
0.00114663
0.000134033
0.000173181
0.000218961
0.000272356
0.000334482
0.000406613
0.000490203
0.000586904
0.000698601
0.000827437
0.000975855
0.00114663
0.000134033
0.000173181
0.000218961
0.000272356
0.000334482
0.000406613
0.000490203
0.000586904
0.000698601
0.000827437
0.000975855
0.00114663
0.000134033
0.000173181
0.000218961
0.000272356
0.000334482
0.000406613
0.000490203
0.000586904
0.000698601
0.000827437
0.000975855
0.00114663
0.000134033
0.000173181
0.000218961
0.000272356
0.000334482
0.000406613
0.000490203
0.000586904
0.000698601
0.000827437
0.000975855
0.00114663
0.000134033
0.000173181
0.000218961
0.000272356
0.000334482
0.000406613
0.000490203
0.000586904
0.000698601
0.000827437
0.000975855
0.00114663
0.000134033
0.000173181
0.000218961
0.000272356
0.000334482
0.000406613
0.000490203
0.000586904
0.000698601
0.000827437
0.000975855
0.00114663
0.000134033
0.000173181
0.000218961
0.000272356
0.000334482
0.000406613
0.000490203
0.000586904
0.000698601
0.000827437
0.000975855
0.00114663
0.000134033
0.000173181
0.000218961
0.000272356
0.000334482
0.000406613
0.000490203
0.000586904
0.000698601
0.000827437
0.000975855
0.00114663
0.000134033
0.000173181
0.000218961
0.000272356
0.000334482
0.000406613
0.000490203
0.000586904
0.000698601
0.000827437
0.000975855
0.00114663
0.000134033
0.000173181
0.000218961
0.000272356
0.000334482
0.000406613
0.000490203
0.000586904
0.000698601
0.000827437
0.000975855
0.00114663
0.000134033
0.000173181
0.000218961
0.000272356
0.000334482
0.000406613
0.000490203
0.000586904
0.000698601
0.000827437
0.000975855
0.00114663
0.000134033
0.000173181
0.000218961
0.000272356
0.000334482
0.000406613
0.000490203
0.000586904
0.000698601
0.000827437
0.000975855
0.00114663
0.000134033
0.000173181
0.000218961
0.000272356
0.000334482
0.000406613
0.000490203
0.000586904
0.000698601
0.000827437
0.000975855
0.00114663
0.000134033
0.000173181
0.000218961
0.000272356
0.000334482
0.000406613
0.000490203
0.000586904
0.000698601
0.000827437
0.000975855
0.00114663
0.000134033
0.000173181
0.000218961
0.000272356
0.000334482
0.000406613
0.000490203
0.000586904
0.000698601
0.000827437
0.000975855
0.00114663
0.000134033
0.000173181
0.000218961
0.000272356
0.000334482
0.000406613
0.000490203
0.000586904
0.000698601
0.000827437
0.000975855
0.00114663
0.000134033
0.000173181
0.000218961
0.000272356
0.000334482
0.000406613
0.000490203
0.000586904
0.000698601
0.000827437
0.000975855
0.00114663
0.000134033
0.000173181
0.000218961
0.000272356
0.000334482
0.000406613
0.000490203
0.000586904
0.000698601
0.000827437
0.000975855
0.00114663
0.000134033
0.000173181
0.000218961
0.000272356
0.000334482
0.000406613
0.000490203
0.000586904
0.000698601
0.000827437
0.000975855
0.00114663
0.000134033
0.000173181
0.000218961
0.000272356
0.000334482
0.000406613
0.000490203
0.000586904
0.000698601
0.000827437
0.000975855
0.00114663
0.000134033
0.000173181
0.000218961
0.000272356
0.000334482
0.000406613
0.000490203
0.000586904
0.000698601
0.000827437
0.000975855
0.00114663
0.000134033
0.000173181
0.000218961
0.000272356
0.000334482
0.000406613
0.000490203
0.000586904
0.000698601
0.000827437
0.000975855
0.00114663
)
;

boundaryField
{
    out
    {
        type            calculated;
        value           uniform 0;
    }
    in
    {
        type            calculated;
        value           uniform 0;
    }
    frontAndBack
    {
        type            empty;
    }
}


// ************************************************************************* //
