/*--------------------------------*- C++ -*----------------------------------*\
| =========                 |                                                 |
| \\      /  F ield         | OpenFOAM: The Open Source CFD Toolbox           |
|  \\    /   O peration     | Version:  2.2.0                                 |
|   \\  /    A nd           | Web:      www.OpenFOAM.org                      |
|    \\/     M anipulation  |                                                 |
\*---------------------------------------------------------------------------*/
FoamFile
{
    version     2.0;
    format      ascii;
    class       polyBoundaryMesh;
    location    "constant/polyMesh";
    object      boundary;
}
// * * * * * * * * * * * * * * * * * * * * * * * * * * * * * * * * * * * * * //

3
(
    up
    {
        type            patch;
        nFaces          320;
        startFace       40640;
    }
    hole
    {
        type            patch;
        nFaces          320;
        startFace       40960;
    }
    frontAndBack
    {
        type            empty;
        inGroups        1(empty);
        nFaces          40960;
        startFace       41280;
    }
)

// ************************************************************************* //
