/*--------------------------------*- C++ -*----------------------------------*\
| =========                 |                                                 |
| \\      /  F ield         | OpenFOAM: The Open Source CFD Toolbox           |
|  \\    /   O peration     | Version:  2.2.0                                 |
|   \\  /    A nd           | Web:      www.OpenFOAM.org                      |
|    \\/     M anipulation  |                                                 |
\*---------------------------------------------------------------------------*/
FoamFile
{
    version     2.0;
    format      ascii;
    class       volScalarField;
    location    "constant/polyMesh";
    object      Volumes;
}
// * * * * * * * * * * * * * * * * * * * * * * * * * * * * * * * * * * * * * //

dimensions      [0 3 0 0 0 0 0];

internalField   nonuniform List<scalar> 
20480
(
2.35475e-05
2.4626e-05
2.57045e-05
2.6783e-05
2.78615e-05
2.894e-05
3.00185e-05
3.10971e-05
3.21756e-05
3.32541e-05
3.43326e-05
3.54111e-05
3.64896e-05
3.75681e-05
3.86466e-05
3.97251e-05
4.08037e-05
4.18822e-05
4.29607e-05
4.40392e-05
4.51177e-05
4.61962e-05
4.72747e-05
4.83532e-05
4.94317e-05
5.05103e-05
5.15888e-05
5.26673e-05
5.37458e-05
5.48243e-05
5.59028e-05
5.69813e-05
5.80598e-05
5.91383e-05
6.02169e-05
6.12954e-05
6.23739e-05
6.34524e-05
6.45309e-05
6.56094e-05
6.66879e-05
6.77664e-05
6.88449e-05
6.99235e-05
7.1002e-05
7.20805e-05
7.3159e-05
7.42375e-05
7.5316e-05
7.63945e-05
7.7473e-05
7.85515e-05
7.96301e-05
8.07086e-05
8.17871e-05
8.28656e-05
8.39441e-05
8.50226e-05
8.61011e-05
8.71796e-05
8.82581e-05
8.93367e-05
9.04152e-05
9.14937e-05
2.35475e-05
2.4626e-05
2.57045e-05
2.6783e-05
2.78615e-05
2.894e-05
3.00185e-05
3.10971e-05
3.21756e-05
3.32541e-05
3.43326e-05
3.54111e-05
3.64896e-05
3.75681e-05
3.86466e-05
3.97251e-05
4.08037e-05
4.18822e-05
4.29607e-05
4.40392e-05
4.51177e-05
4.61962e-05
4.72747e-05
4.83532e-05
4.94317e-05
5.05103e-05
5.15888e-05
5.26673e-05
5.37458e-05
5.48243e-05
5.59028e-05
5.69813e-05
5.80598e-05
5.91383e-05
6.02169e-05
6.12954e-05
6.23739e-05
6.34524e-05
6.45309e-05
6.56094e-05
6.66879e-05
6.77664e-05
6.88449e-05
6.99235e-05
7.1002e-05
7.20805e-05
7.3159e-05
7.42375e-05
7.5316e-05
7.63945e-05
7.7473e-05
7.85515e-05
7.96301e-05
8.07086e-05
8.17871e-05
8.28656e-05
8.39441e-05
8.50226e-05
8.61011e-05
8.71796e-05
8.82581e-05
8.93367e-05
9.04152e-05
9.14937e-05
2.35475e-05
2.4626e-05
2.57045e-05
2.6783e-05
2.78615e-05
2.894e-05
3.00185e-05
3.10971e-05
3.21756e-05
3.32541e-05
3.43326e-05
3.54111e-05
3.64896e-05
3.75681e-05
3.86466e-05
3.97251e-05
4.08037e-05
4.18822e-05
4.29607e-05
4.40392e-05
4.51177e-05
4.61962e-05
4.72747e-05
4.83532e-05
4.94317e-05
5.05103e-05
5.15888e-05
5.26673e-05
5.37458e-05
5.48243e-05
5.59028e-05
5.69813e-05
5.80598e-05
5.91383e-05
6.02169e-05
6.12954e-05
6.23739e-05
6.34524e-05
6.45309e-05
6.56094e-05
6.66879e-05
6.77664e-05
6.88449e-05
6.99235e-05
7.1002e-05
7.20805e-05
7.3159e-05
7.42375e-05
7.5316e-05
7.63945e-05
7.7473e-05
7.85515e-05
7.96301e-05
8.07086e-05
8.17871e-05
8.28656e-05
8.39441e-05
8.50226e-05
8.61011e-05
8.71796e-05
8.82581e-05
8.93367e-05
9.04152e-05
9.14937e-05
2.35475e-05
2.4626e-05
2.57045e-05
2.6783e-05
2.78615e-05
2.894e-05
3.00185e-05
3.10971e-05
3.21756e-05
3.32541e-05
3.43326e-05
3.54111e-05
3.64896e-05
3.75681e-05
3.86466e-05
3.97251e-05
4.08037e-05
4.18822e-05
4.29607e-05
4.40392e-05
4.51177e-05
4.61962e-05
4.72747e-05
4.83532e-05
4.94317e-05
5.05103e-05
5.15888e-05
5.26673e-05
5.37458e-05
5.48243e-05
5.59028e-05
5.69813e-05
5.80598e-05
5.91383e-05
6.02169e-05
6.12954e-05
6.23739e-05
6.34524e-05
6.45309e-05
6.56094e-05
6.66879e-05
6.77664e-05
6.88449e-05
6.99235e-05
7.1002e-05
7.20805e-05
7.3159e-05
7.42375e-05
7.5316e-05
7.63945e-05
7.7473e-05
7.85515e-05
7.96301e-05
8.07086e-05
8.17871e-05
8.28656e-05
8.39441e-05
8.50226e-05
8.61011e-05
8.71796e-05
8.82581e-05
8.93367e-05
9.04152e-05
9.14937e-05
2.35475e-05
2.4626e-05
2.57045e-05
2.6783e-05
2.78615e-05
2.894e-05
3.00185e-05
3.10971e-05
3.21756e-05
3.32541e-05
3.43326e-05
3.54111e-05
3.64896e-05
3.75681e-05
3.86466e-05
3.97251e-05
4.08037e-05
4.18822e-05
4.29607e-05
4.40392e-05
4.51177e-05
4.61962e-05
4.72747e-05
4.83532e-05
4.94317e-05
5.05103e-05
5.15888e-05
5.26673e-05
5.37458e-05
5.48243e-05
5.59028e-05
5.69813e-05
5.80598e-05
5.91383e-05
6.02169e-05
6.12954e-05
6.23739e-05
6.34524e-05
6.45309e-05
6.56094e-05
6.66879e-05
6.77664e-05
6.88449e-05
6.99235e-05
7.1002e-05
7.20805e-05
7.3159e-05
7.42375e-05
7.5316e-05
7.63945e-05
7.7473e-05
7.85515e-05
7.96301e-05
8.07086e-05
8.17871e-05
8.28656e-05
8.39441e-05
8.50226e-05
8.61011e-05
8.71796e-05
8.82581e-05
8.93367e-05
9.04152e-05
9.14937e-05
2.35475e-05
2.4626e-05
2.57045e-05
2.6783e-05
2.78615e-05
2.894e-05
3.00185e-05
3.10971e-05
3.21756e-05
3.32541e-05
3.43326e-05
3.54111e-05
3.64896e-05
3.75681e-05
3.86466e-05
3.97251e-05
4.08037e-05
4.18822e-05
4.29607e-05
4.40392e-05
4.51177e-05
4.61962e-05
4.72747e-05
4.83532e-05
4.94317e-05
5.05103e-05
5.15888e-05
5.26673e-05
5.37458e-05
5.48243e-05
5.59028e-05
5.69813e-05
5.80598e-05
5.91383e-05
6.02169e-05
6.12954e-05
6.23739e-05
6.34524e-05
6.45309e-05
6.56094e-05
6.66879e-05
6.77664e-05
6.88449e-05
6.99235e-05
7.1002e-05
7.20805e-05
7.3159e-05
7.42375e-05
7.5316e-05
7.63945e-05
7.7473e-05
7.85516e-05
7.96301e-05
8.07086e-05
8.17871e-05
8.28656e-05
8.39441e-05
8.50226e-05
8.61011e-05
8.71796e-05
8.82582e-05
8.93367e-05
9.04152e-05
9.14937e-05
2.35475e-05
2.4626e-05
2.57045e-05
2.6783e-05
2.78615e-05
2.894e-05
3.00185e-05
3.10971e-05
3.21756e-05
3.32541e-05
3.43326e-05
3.54111e-05
3.64896e-05
3.75681e-05
3.86466e-05
3.97251e-05
4.08037e-05
4.18822e-05
4.29607e-05
4.40392e-05
4.51177e-05
4.61962e-05
4.72747e-05
4.83532e-05
4.94317e-05
5.05103e-05
5.15888e-05
5.26673e-05
5.37458e-05
5.48243e-05
5.59028e-05
5.69813e-05
5.80598e-05
5.91383e-05
6.02169e-05
6.12954e-05
6.23739e-05
6.34524e-05
6.45309e-05
6.56094e-05
6.66879e-05
6.77664e-05
6.88449e-05
6.99235e-05
7.1002e-05
7.20805e-05
7.3159e-05
7.42375e-05
7.5316e-05
7.63945e-05
7.7473e-05
7.85516e-05
7.96301e-05
8.07086e-05
8.17871e-05
8.28656e-05
8.39441e-05
8.50226e-05
8.61011e-05
8.71796e-05
8.82582e-05
8.93367e-05
9.04152e-05
9.14937e-05
2.35475e-05
2.4626e-05
2.57045e-05
2.6783e-05
2.78615e-05
2.894e-05
3.00185e-05
3.10971e-05
3.21756e-05
3.32541e-05
3.43326e-05
3.54111e-05
3.64896e-05
3.75681e-05
3.86466e-05
3.97251e-05
4.08037e-05
4.18822e-05
4.29607e-05
4.40392e-05
4.51177e-05
4.61962e-05
4.72747e-05
4.83532e-05
4.94317e-05
5.05103e-05
5.15888e-05
5.26673e-05
5.37458e-05
5.48243e-05
5.59028e-05
5.69813e-05
5.80598e-05
5.91383e-05
6.02169e-05
6.12954e-05
6.23739e-05
6.34524e-05
6.45309e-05
6.56094e-05
6.66879e-05
6.77664e-05
6.88449e-05
6.99235e-05
7.1002e-05
7.20805e-05
7.3159e-05
7.42375e-05
7.5316e-05
7.63945e-05
7.7473e-05
7.85516e-05
7.96301e-05
8.07086e-05
8.17871e-05
8.28656e-05
8.39441e-05
8.50226e-05
8.61011e-05
8.71796e-05
8.82582e-05
8.93367e-05
9.04152e-05
9.14937e-05
2.35475e-05
2.4626e-05
2.57045e-05
2.6783e-05
2.78615e-05
2.894e-05
3.00185e-05
3.10971e-05
3.21756e-05
3.32541e-05
3.43326e-05
3.54111e-05
3.64896e-05
3.75681e-05
3.86466e-05
3.97251e-05
4.08037e-05
4.18822e-05
4.29607e-05
4.40392e-05
4.51177e-05
4.61962e-05
4.72747e-05
4.83532e-05
4.94317e-05
5.05103e-05
5.15888e-05
5.26673e-05
5.37458e-05
5.48243e-05
5.59028e-05
5.69813e-05
5.80598e-05
5.91383e-05
6.02169e-05
6.12954e-05
6.23739e-05
6.34524e-05
6.45309e-05
6.56094e-05
6.66879e-05
6.77664e-05
6.8845e-05
6.99235e-05
7.1002e-05
7.20805e-05
7.3159e-05
7.42375e-05
7.5316e-05
7.63945e-05
7.7473e-05
7.85516e-05
7.96301e-05
8.07086e-05
8.17871e-05
8.28656e-05
8.39441e-05
8.50226e-05
8.61011e-05
8.71796e-05
8.82582e-05
8.93367e-05
9.04152e-05
9.14937e-05
2.35475e-05
2.4626e-05
2.57045e-05
2.6783e-05
2.78615e-05
2.894e-05
3.00185e-05
3.10971e-05
3.21756e-05
3.32541e-05
3.43326e-05
3.54111e-05
3.64896e-05
3.75681e-05
3.86466e-05
3.97251e-05
4.08037e-05
4.18822e-05
4.29607e-05
4.40392e-05
4.51177e-05
4.61962e-05
4.72747e-05
4.83532e-05
4.94317e-05
5.05103e-05
5.15888e-05
5.26673e-05
5.37458e-05
5.48243e-05
5.59028e-05
5.69813e-05
5.80598e-05
5.91384e-05
6.02169e-05
6.12954e-05
6.23739e-05
6.34524e-05
6.45309e-05
6.56094e-05
6.66879e-05
6.77664e-05
6.8845e-05
6.99235e-05
7.1002e-05
7.20805e-05
7.3159e-05
7.42375e-05
7.5316e-05
7.63945e-05
7.7473e-05
7.85516e-05
7.96301e-05
8.07086e-05
8.17871e-05
8.28656e-05
8.39441e-05
8.50226e-05
8.61011e-05
8.71796e-05
8.82582e-05
8.93367e-05
9.04152e-05
9.14937e-05
2.35475e-05
2.4626e-05
2.57045e-05
2.6783e-05
2.78615e-05
2.894e-05
3.00185e-05
3.10971e-05
3.21756e-05
3.32541e-05
3.43326e-05
3.54111e-05
3.64896e-05
3.75681e-05
3.86466e-05
3.97251e-05
4.08037e-05
4.18822e-05
4.29607e-05
4.40392e-05
4.51177e-05
4.61962e-05
4.72747e-05
4.83532e-05
4.94317e-05
5.05103e-05
5.15888e-05
5.26673e-05
5.37458e-05
5.48243e-05
5.59028e-05
5.69813e-05
5.80598e-05
5.91384e-05
6.02169e-05
6.12954e-05
6.23739e-05
6.34524e-05
6.45309e-05
6.56094e-05
6.66879e-05
6.77664e-05
6.8845e-05
6.99235e-05
7.1002e-05
7.20805e-05
7.3159e-05
7.42375e-05
7.5316e-05
7.63945e-05
7.7473e-05
7.85516e-05
7.96301e-05
8.07086e-05
8.17871e-05
8.28656e-05
8.39441e-05
8.50226e-05
8.61011e-05
8.71796e-05
8.82582e-05
8.93367e-05
9.04152e-05
9.14937e-05
2.35475e-05
2.4626e-05
2.57045e-05
2.6783e-05
2.78615e-05
2.894e-05
3.00185e-05
3.10971e-05
3.21756e-05
3.32541e-05
3.43326e-05
3.54111e-05
3.64896e-05
3.75681e-05
3.86466e-05
3.97251e-05
4.08037e-05
4.18822e-05
4.29607e-05
4.40392e-05
4.51177e-05
4.61962e-05
4.72747e-05
4.83532e-05
4.94318e-05
5.05103e-05
5.15888e-05
5.26673e-05
5.37458e-05
5.48243e-05
5.59028e-05
5.69813e-05
5.80598e-05
5.91384e-05
6.02169e-05
6.12954e-05
6.23739e-05
6.34524e-05
6.45309e-05
6.56094e-05
6.66879e-05
6.77664e-05
6.8845e-05
6.99235e-05
7.1002e-05
7.20805e-05
7.3159e-05
7.42375e-05
7.5316e-05
7.63945e-05
7.7473e-05
7.85516e-05
7.96301e-05
8.07086e-05
8.17871e-05
8.28656e-05
8.39441e-05
8.50226e-05
8.61011e-05
8.71796e-05
8.82582e-05
8.93367e-05
9.04152e-05
9.14937e-05
2.35475e-05
2.4626e-05
2.57045e-05
2.6783e-05
2.78615e-05
2.894e-05
3.00185e-05
3.10971e-05
3.21756e-05
3.32541e-05
3.43326e-05
3.54111e-05
3.64896e-05
3.75681e-05
3.86466e-05
3.97251e-05
4.08037e-05
4.18822e-05
4.29607e-05
4.40392e-05
4.51177e-05
4.61962e-05
4.72747e-05
4.83532e-05
4.94318e-05
5.05103e-05
5.15888e-05
5.26673e-05
5.37458e-05
5.48243e-05
5.59028e-05
5.69813e-05
5.80598e-05
5.91384e-05
6.02169e-05
6.12954e-05
6.23739e-05
6.34524e-05
6.45309e-05
6.56094e-05
6.66879e-05
6.77664e-05
6.8845e-05
6.99235e-05
7.1002e-05
7.20805e-05
7.3159e-05
7.42375e-05
7.5316e-05
7.63945e-05
7.7473e-05
7.85516e-05
7.96301e-05
8.07086e-05
8.17871e-05
8.28656e-05
8.39441e-05
8.50226e-05
8.61011e-05
8.71796e-05
8.82582e-05
8.93367e-05
9.04152e-05
9.14937e-05
2.35475e-05
2.4626e-05
2.57045e-05
2.6783e-05
2.78615e-05
2.894e-05
3.00185e-05
3.10971e-05
3.21756e-05
3.32541e-05
3.43326e-05
3.54111e-05
3.64896e-05
3.75681e-05
3.86466e-05
3.97251e-05
4.08037e-05
4.18822e-05
4.29607e-05
4.40392e-05
4.51177e-05
4.61962e-05
4.72747e-05
4.83532e-05
4.94318e-05
5.05103e-05
5.15888e-05
5.26673e-05
5.37458e-05
5.48243e-05
5.59028e-05
5.69813e-05
5.80598e-05
5.91384e-05
6.02169e-05
6.12954e-05
6.23739e-05
6.34524e-05
6.45309e-05
6.56094e-05
6.66879e-05
6.77664e-05
6.8845e-05
6.99235e-05
7.1002e-05
7.20805e-05
7.3159e-05
7.42375e-05
7.5316e-05
7.63945e-05
7.7473e-05
7.85516e-05
7.96301e-05
8.07086e-05
8.17871e-05
8.28656e-05
8.39441e-05
8.50226e-05
8.61011e-05
8.71797e-05
8.82582e-05
8.93367e-05
9.04152e-05
9.14937e-05
2.35475e-05
2.4626e-05
2.57045e-05
2.6783e-05
2.78615e-05
2.894e-05
3.00185e-05
3.10971e-05
3.21756e-05
3.32541e-05
3.43326e-05
3.54111e-05
3.64896e-05
3.75681e-05
3.86466e-05
3.97251e-05
4.08037e-05
4.18822e-05
4.29607e-05
4.40392e-05
4.51177e-05
4.61962e-05
4.72747e-05
4.83532e-05
4.94318e-05
5.05103e-05
5.15888e-05
5.26673e-05
5.37458e-05
5.48243e-05
5.59028e-05
5.69813e-05
5.80598e-05
5.91384e-05
6.02169e-05
6.12954e-05
6.23739e-05
6.34524e-05
6.45309e-05
6.56094e-05
6.66879e-05
6.77664e-05
6.8845e-05
6.99235e-05
7.1002e-05
7.20805e-05
7.3159e-05
7.42375e-05
7.5316e-05
7.63945e-05
7.7473e-05
7.85516e-05
7.96301e-05
8.07086e-05
8.17871e-05
8.28656e-05
8.39441e-05
8.50226e-05
8.61011e-05
8.71797e-05
8.82582e-05
8.93367e-05
9.04152e-05
9.14937e-05
2.35475e-05
2.4626e-05
2.57045e-05
2.6783e-05
2.78615e-05
2.894e-05
3.00185e-05
3.10971e-05
3.21756e-05
3.32541e-05
3.43326e-05
3.54111e-05
3.64896e-05
3.75681e-05
3.86466e-05
3.97251e-05
4.08037e-05
4.18822e-05
4.29607e-05
4.40392e-05
4.51177e-05
4.61962e-05
4.72747e-05
4.83532e-05
4.94318e-05
5.05103e-05
5.15888e-05
5.26673e-05
5.37458e-05
5.48243e-05
5.59028e-05
5.69813e-05
5.80598e-05
5.91384e-05
6.02169e-05
6.12954e-05
6.23739e-05
6.34524e-05
6.45309e-05
6.56094e-05
6.66879e-05
6.77664e-05
6.8845e-05
6.99235e-05
7.1002e-05
7.20805e-05
7.3159e-05
7.42375e-05
7.5316e-05
7.63945e-05
7.74731e-05
7.85516e-05
7.96301e-05
8.07086e-05
8.17871e-05
8.28656e-05
8.39441e-05
8.50226e-05
8.61011e-05
8.71797e-05
8.82582e-05
8.93367e-05
9.04152e-05
9.14937e-05
2.35475e-05
2.4626e-05
2.57045e-05
2.6783e-05
2.78615e-05
2.894e-05
3.00185e-05
3.10971e-05
3.21756e-05
3.32541e-05
3.43326e-05
3.54111e-05
3.64896e-05
3.75681e-05
3.86466e-05
3.97251e-05
4.08037e-05
4.18822e-05
4.29607e-05
4.40392e-05
4.51177e-05
4.61962e-05
4.72747e-05
4.83532e-05
4.94318e-05
5.05103e-05
5.15888e-05
5.26673e-05
5.37458e-05
5.48243e-05
5.59028e-05
5.69813e-05
5.80598e-05
5.91384e-05
6.02169e-05
6.12954e-05
6.23739e-05
6.34524e-05
6.45309e-05
6.56094e-05
6.66879e-05
6.77664e-05
6.8845e-05
6.99235e-05
7.1002e-05
7.20805e-05
7.3159e-05
7.42375e-05
7.5316e-05
7.63945e-05
7.74731e-05
7.85516e-05
7.96301e-05
8.07086e-05
8.17871e-05
8.28656e-05
8.39441e-05
8.50226e-05
8.61011e-05
8.71797e-05
8.82582e-05
8.93367e-05
9.04152e-05
9.14937e-05
2.35475e-05
2.4626e-05
2.57045e-05
2.6783e-05
2.78615e-05
2.894e-05
3.00185e-05
3.10971e-05
3.21756e-05
3.32541e-05
3.43326e-05
3.54111e-05
3.64896e-05
3.75681e-05
3.86466e-05
3.97252e-05
4.08037e-05
4.18822e-05
4.29607e-05
4.40392e-05
4.51177e-05
4.61962e-05
4.72747e-05
4.83532e-05
4.94318e-05
5.05103e-05
5.15888e-05
5.26673e-05
5.37458e-05
5.48243e-05
5.59028e-05
5.69813e-05
5.80598e-05
5.91384e-05
6.02169e-05
6.12954e-05
6.23739e-05
6.34524e-05
6.45309e-05
6.56094e-05
6.66879e-05
6.77664e-05
6.8845e-05
6.99235e-05
7.1002e-05
7.20805e-05
7.3159e-05
7.42375e-05
7.5316e-05
7.63945e-05
7.74731e-05
7.85516e-05
7.96301e-05
8.07086e-05
8.17871e-05
8.28656e-05
8.39441e-05
8.50226e-05
8.61011e-05
8.71797e-05
8.82582e-05
8.93367e-05
9.04152e-05
9.14937e-05
2.35475e-05
2.4626e-05
2.57045e-05
2.6783e-05
2.78615e-05
2.894e-05
3.00185e-05
3.10971e-05
3.21756e-05
3.32541e-05
3.43326e-05
3.54111e-05
3.64896e-05
3.75681e-05
3.86466e-05
3.97252e-05
4.08037e-05
4.18822e-05
4.29607e-05
4.40392e-05
4.51177e-05
4.61962e-05
4.72747e-05
4.83532e-05
4.94318e-05
5.05103e-05
5.15888e-05
5.26673e-05
5.37458e-05
5.48243e-05
5.59028e-05
5.69813e-05
5.80598e-05
5.91384e-05
6.02169e-05
6.12954e-05
6.23739e-05
6.34524e-05
6.45309e-05
6.56094e-05
6.66879e-05
6.77664e-05
6.8845e-05
6.99235e-05
7.1002e-05
7.20805e-05
7.3159e-05
7.42375e-05
7.5316e-05
7.63945e-05
7.74731e-05
7.85516e-05
7.96301e-05
8.07086e-05
8.17871e-05
8.28656e-05
8.39441e-05
8.50226e-05
8.61011e-05
8.71797e-05
8.82582e-05
8.93367e-05
9.04152e-05
9.14937e-05
2.35475e-05
2.4626e-05
2.57045e-05
2.6783e-05
2.78615e-05
2.894e-05
3.00185e-05
3.10971e-05
3.21756e-05
3.32541e-05
3.43326e-05
3.54111e-05
3.64896e-05
3.75681e-05
3.86466e-05
3.97252e-05
4.08037e-05
4.18822e-05
4.29607e-05
4.40392e-05
4.51177e-05
4.61962e-05
4.72747e-05
4.83532e-05
4.94318e-05
5.05103e-05
5.15888e-05
5.26673e-05
5.37458e-05
5.48243e-05
5.59028e-05
5.69813e-05
5.80598e-05
5.91384e-05
6.02169e-05
6.12954e-05
6.23739e-05
6.34524e-05
6.45309e-05
6.56094e-05
6.66879e-05
6.77664e-05
6.8845e-05
6.99235e-05
7.1002e-05
7.20805e-05
7.3159e-05
7.42375e-05
7.5316e-05
7.63945e-05
7.74731e-05
7.85516e-05
7.96301e-05
8.07086e-05
8.17871e-05
8.28656e-05
8.39441e-05
8.50226e-05
8.61011e-05
8.71797e-05
8.82582e-05
8.93367e-05
9.04152e-05
9.14937e-05
2.35475e-05
2.4626e-05
2.57045e-05
2.6783e-05
2.78615e-05
2.894e-05
3.00185e-05
3.10971e-05
3.21756e-05
3.32541e-05
3.43326e-05
3.54111e-05
3.64896e-05
3.75681e-05
3.86466e-05
3.97252e-05
4.08037e-05
4.18822e-05
4.29607e-05
4.40392e-05
4.51177e-05
4.61962e-05
4.72747e-05
4.83532e-05
4.94318e-05
5.05103e-05
5.15888e-05
5.26673e-05
5.37458e-05
5.48243e-05
5.59028e-05
5.69813e-05
5.80598e-05
5.91384e-05
6.02169e-05
6.12954e-05
6.23739e-05
6.34524e-05
6.45309e-05
6.56094e-05
6.66879e-05
6.77664e-05
6.8845e-05
6.99235e-05
7.1002e-05
7.20805e-05
7.3159e-05
7.42375e-05
7.5316e-05
7.63945e-05
7.74731e-05
7.85516e-05
7.96301e-05
8.07086e-05
8.17871e-05
8.28656e-05
8.39441e-05
8.50226e-05
8.61011e-05
8.71797e-05
8.82582e-05
8.93367e-05
9.04152e-05
9.14937e-05
2.35475e-05
2.4626e-05
2.57045e-05
2.6783e-05
2.78615e-05
2.894e-05
3.00185e-05
3.10971e-05
3.21756e-05
3.32541e-05
3.43326e-05
3.54111e-05
3.64896e-05
3.75681e-05
3.86466e-05
3.97252e-05
4.08037e-05
4.18822e-05
4.29607e-05
4.40392e-05
4.51177e-05
4.61962e-05
4.72747e-05
4.83532e-05
4.94318e-05
5.05103e-05
5.15888e-05
5.26673e-05
5.37458e-05
5.48243e-05
5.59028e-05
5.69813e-05
5.80598e-05
5.91384e-05
6.02169e-05
6.12954e-05
6.23739e-05
6.34524e-05
6.45309e-05
6.56094e-05
6.66879e-05
6.77665e-05
6.8845e-05
6.99235e-05
7.1002e-05
7.20805e-05
7.3159e-05
7.42375e-05
7.5316e-05
7.63945e-05
7.74731e-05
7.85516e-05
7.96301e-05
8.07086e-05
8.17871e-05
8.28656e-05
8.39441e-05
8.50226e-05
8.61011e-05
8.71797e-05
8.82582e-05
8.93367e-05
9.04152e-05
9.14937e-05
2.35475e-05
2.4626e-05
2.57045e-05
2.6783e-05
2.78615e-05
2.894e-05
3.00185e-05
3.10971e-05
3.21756e-05
3.32541e-05
3.43326e-05
3.54111e-05
3.64896e-05
3.75681e-05
3.86466e-05
3.97252e-05
4.08037e-05
4.18822e-05
4.29607e-05
4.40392e-05
4.51177e-05
4.61962e-05
4.72747e-05
4.83532e-05
4.94318e-05
5.05103e-05
5.15888e-05
5.26673e-05
5.37458e-05
5.48243e-05
5.59028e-05
5.69813e-05
5.80598e-05
5.91384e-05
6.02169e-05
6.12954e-05
6.23739e-05
6.34524e-05
6.45309e-05
6.56094e-05
6.66879e-05
6.77665e-05
6.8845e-05
6.99235e-05
7.1002e-05
7.20805e-05
7.3159e-05
7.42375e-05
7.5316e-05
7.63945e-05
7.74731e-05
7.85516e-05
7.96301e-05
8.07086e-05
8.17871e-05
8.28656e-05
8.39441e-05
8.50226e-05
8.61011e-05
8.71797e-05
8.82582e-05
8.93367e-05
9.04152e-05
9.14937e-05
2.35475e-05
2.4626e-05
2.57045e-05
2.6783e-05
2.78615e-05
2.894e-05
3.00185e-05
3.10971e-05
3.21756e-05
3.32541e-05
3.43326e-05
3.54111e-05
3.64896e-05
3.75681e-05
3.86466e-05
3.97252e-05
4.08037e-05
4.18822e-05
4.29607e-05
4.40392e-05
4.51177e-05
4.61962e-05
4.72747e-05
4.83532e-05
4.94318e-05
5.05103e-05
5.15888e-05
5.26673e-05
5.37458e-05
5.48243e-05
5.59028e-05
5.69813e-05
5.80598e-05
5.91384e-05
6.02169e-05
6.12954e-05
6.23739e-05
6.34524e-05
6.45309e-05
6.56094e-05
6.66879e-05
6.77665e-05
6.8845e-05
6.99235e-05
7.1002e-05
7.20805e-05
7.3159e-05
7.42375e-05
7.5316e-05
7.63945e-05
7.74731e-05
7.85516e-05
7.96301e-05
8.07086e-05
8.17871e-05
8.28656e-05
8.39441e-05
8.50226e-05
8.61011e-05
8.71797e-05
8.82582e-05
8.93367e-05
9.04152e-05
9.14937e-05
2.35475e-05
2.4626e-05
2.57045e-05
2.6783e-05
2.78615e-05
2.894e-05
3.00185e-05
3.10971e-05
3.21756e-05
3.32541e-05
3.43326e-05
3.54111e-05
3.64896e-05
3.75681e-05
3.86466e-05
3.97252e-05
4.08037e-05
4.18822e-05
4.29607e-05
4.40392e-05
4.51177e-05
4.61962e-05
4.72747e-05
4.83532e-05
4.94318e-05
5.05103e-05
5.15888e-05
5.26673e-05
5.37458e-05
5.48243e-05
5.59028e-05
5.69813e-05
5.80598e-05
5.91384e-05
6.02169e-05
6.12954e-05
6.23739e-05
6.34524e-05
6.45309e-05
6.56094e-05
6.66879e-05
6.77665e-05
6.8845e-05
6.99235e-05
7.1002e-05
7.20805e-05
7.3159e-05
7.42375e-05
7.5316e-05
7.63945e-05
7.74731e-05
7.85516e-05
7.96301e-05
8.07086e-05
8.17871e-05
8.28656e-05
8.39441e-05
8.50226e-05
8.61011e-05
8.71797e-05
8.82582e-05
8.93367e-05
9.04152e-05
9.14937e-05
2.35475e-05
2.4626e-05
2.57045e-05
2.6783e-05
2.78615e-05
2.894e-05
3.00185e-05
3.10971e-05
3.21756e-05
3.32541e-05
3.43326e-05
3.54111e-05
3.64896e-05
3.75681e-05
3.86466e-05
3.97252e-05
4.08037e-05
4.18822e-05
4.29607e-05
4.40392e-05
4.51177e-05
4.61962e-05
4.72747e-05
4.83532e-05
4.94318e-05
5.05103e-05
5.15888e-05
5.26673e-05
5.37458e-05
5.48243e-05
5.59028e-05
5.69813e-05
5.80598e-05
5.91384e-05
6.02169e-05
6.12954e-05
6.23739e-05
6.34524e-05
6.45309e-05
6.56094e-05
6.66879e-05
6.77665e-05
6.8845e-05
6.99235e-05
7.1002e-05
7.20805e-05
7.3159e-05
7.42375e-05
7.5316e-05
7.63945e-05
7.74731e-05
7.85516e-05
7.96301e-05
8.07086e-05
8.17871e-05
8.28656e-05
8.39441e-05
8.50226e-05
8.61011e-05
8.71797e-05
8.82582e-05
8.93367e-05
9.04152e-05
9.14937e-05
2.35475e-05
2.4626e-05
2.57045e-05
2.6783e-05
2.78615e-05
2.894e-05
3.00185e-05
3.10971e-05
3.21756e-05
3.32541e-05
3.43326e-05
3.54111e-05
3.64896e-05
3.75681e-05
3.86466e-05
3.97252e-05
4.08037e-05
4.18822e-05
4.29607e-05
4.40392e-05
4.51177e-05
4.61962e-05
4.72747e-05
4.83532e-05
4.94318e-05
5.05103e-05
5.15888e-05
5.26673e-05
5.37458e-05
5.48243e-05
5.59028e-05
5.69813e-05
5.80598e-05
5.91384e-05
6.02169e-05
6.12954e-05
6.23739e-05
6.34524e-05
6.45309e-05
6.56094e-05
6.66879e-05
6.77665e-05
6.8845e-05
6.99235e-05
7.1002e-05
7.20805e-05
7.3159e-05
7.42375e-05
7.5316e-05
7.63945e-05
7.74731e-05
7.85516e-05
7.96301e-05
8.07086e-05
8.17871e-05
8.28656e-05
8.39441e-05
8.50226e-05
8.61011e-05
8.71797e-05
8.82582e-05
8.93367e-05
9.04152e-05
9.14937e-05
2.35475e-05
2.4626e-05
2.57045e-05
2.6783e-05
2.78615e-05
2.894e-05
3.00185e-05
3.10971e-05
3.21756e-05
3.32541e-05
3.43326e-05
3.54111e-05
3.64896e-05
3.75681e-05
3.86466e-05
3.97252e-05
4.08037e-05
4.18822e-05
4.29607e-05
4.40392e-05
4.51177e-05
4.61962e-05
4.72747e-05
4.83532e-05
4.94318e-05
5.05103e-05
5.15888e-05
5.26673e-05
5.37458e-05
5.48243e-05
5.59028e-05
5.69813e-05
5.80599e-05
5.91384e-05
6.02169e-05
6.12954e-05
6.23739e-05
6.34524e-05
6.45309e-05
6.56094e-05
6.66879e-05
6.77665e-05
6.8845e-05
6.99235e-05
7.1002e-05
7.20805e-05
7.3159e-05
7.42375e-05
7.5316e-05
7.63945e-05
7.74731e-05
7.85516e-05
7.96301e-05
8.07086e-05
8.17871e-05
8.28656e-05
8.39441e-05
8.50226e-05
8.61011e-05
8.71797e-05
8.82582e-05
8.93367e-05
9.04152e-05
9.14937e-05
2.35475e-05
2.4626e-05
2.57045e-05
2.6783e-05
2.78615e-05
2.894e-05
3.00185e-05
3.10971e-05
3.21756e-05
3.32541e-05
3.43326e-05
3.54111e-05
3.64896e-05
3.75681e-05
3.86466e-05
3.97252e-05
4.08037e-05
4.18822e-05
4.29607e-05
4.40392e-05
4.51177e-05
4.61962e-05
4.72747e-05
4.83532e-05
4.94318e-05
5.05103e-05
5.15888e-05
5.26673e-05
5.37458e-05
5.48243e-05
5.59028e-05
5.69813e-05
5.80599e-05
5.91384e-05
6.02169e-05
6.12954e-05
6.23739e-05
6.34524e-05
6.45309e-05
6.56094e-05
6.66879e-05
6.77665e-05
6.8845e-05
6.99235e-05
7.1002e-05
7.20805e-05
7.3159e-05
7.42375e-05
7.5316e-05
7.63945e-05
7.74731e-05
7.85516e-05
7.96301e-05
8.07086e-05
8.17871e-05
8.28656e-05
8.39441e-05
8.50226e-05
8.61012e-05
8.71797e-05
8.82582e-05
8.93367e-05
9.04152e-05
9.14937e-05
2.35475e-05
2.4626e-05
2.57045e-05
2.6783e-05
2.78615e-05
2.894e-05
3.00185e-05
3.10971e-05
3.21756e-05
3.32541e-05
3.43326e-05
3.54111e-05
3.64896e-05
3.75681e-05
3.86466e-05
3.97252e-05
4.08037e-05
4.18822e-05
4.29607e-05
4.40392e-05
4.51177e-05
4.61962e-05
4.72747e-05
4.83532e-05
4.94318e-05
5.05103e-05
5.15888e-05
5.26673e-05
5.37458e-05
5.48243e-05
5.59028e-05
5.69813e-05
5.80599e-05
5.91384e-05
6.02169e-05
6.12954e-05
6.23739e-05
6.34524e-05
6.45309e-05
6.56094e-05
6.66879e-05
6.77665e-05
6.8845e-05
6.99235e-05
7.1002e-05
7.20805e-05
7.3159e-05
7.42375e-05
7.5316e-05
7.63945e-05
7.74731e-05
7.85516e-05
7.96301e-05
8.07086e-05
8.17871e-05
8.28656e-05
8.39441e-05
8.50226e-05
8.61011e-05
8.71797e-05
8.82582e-05
8.93367e-05
9.04152e-05
9.14937e-05
2.35475e-05
2.4626e-05
2.57045e-05
2.6783e-05
2.78615e-05
2.894e-05
3.00185e-05
3.10971e-05
3.21756e-05
3.32541e-05
3.43326e-05
3.54111e-05
3.64896e-05
3.75681e-05
3.86466e-05
3.97252e-05
4.08037e-05
4.18822e-05
4.29607e-05
4.40392e-05
4.51177e-05
4.61962e-05
4.72747e-05
4.83532e-05
4.94318e-05
5.05103e-05
5.15888e-05
5.26673e-05
5.37458e-05
5.48243e-05
5.59028e-05
5.69813e-05
5.80599e-05
5.91384e-05
6.02169e-05
6.12954e-05
6.23739e-05
6.34524e-05
6.45309e-05
6.56094e-05
6.66879e-05
6.77665e-05
6.8845e-05
6.99235e-05
7.1002e-05
7.20805e-05
7.3159e-05
7.42375e-05
7.5316e-05
7.63945e-05
7.74731e-05
7.85516e-05
7.96301e-05
8.07086e-05
8.17871e-05
8.28656e-05
8.39441e-05
8.50226e-05
8.61012e-05
8.71797e-05
8.82582e-05
8.93367e-05
9.04152e-05
9.14937e-05
2.35475e-05
2.4626e-05
2.57045e-05
2.6783e-05
2.78615e-05
2.894e-05
3.00185e-05
3.10971e-05
3.21756e-05
3.32541e-05
3.43326e-05
3.54111e-05
3.64896e-05
3.75681e-05
3.86466e-05
3.97252e-05
4.08037e-05
4.18822e-05
4.29607e-05
4.40392e-05
4.51177e-05
4.61962e-05
4.72747e-05
4.83532e-05
4.94318e-05
5.05103e-05
5.15888e-05
5.26673e-05
5.37458e-05
5.48243e-05
5.59028e-05
5.69813e-05
5.80599e-05
5.91384e-05
6.02169e-05
6.12954e-05
6.23739e-05
6.34524e-05
6.45309e-05
6.56094e-05
6.66879e-05
6.77665e-05
6.8845e-05
6.99235e-05
7.1002e-05
7.20805e-05
7.3159e-05
7.42375e-05
7.5316e-05
7.63945e-05
7.74731e-05
7.85516e-05
7.96301e-05
8.07086e-05
8.17871e-05
8.28656e-05
8.39441e-05
8.50226e-05
8.61012e-05
8.71797e-05
8.82582e-05
8.93367e-05
9.04152e-05
9.14937e-05
2.35475e-05
2.4626e-05
2.57045e-05
2.6783e-05
2.78615e-05
2.894e-05
3.00185e-05
3.10971e-05
3.21756e-05
3.32541e-05
3.43326e-05
3.54111e-05
3.64896e-05
3.75681e-05
3.86466e-05
3.97252e-05
4.08037e-05
4.18822e-05
4.29607e-05
4.40392e-05
4.51177e-05
4.61962e-05
4.72747e-05
4.83532e-05
4.94318e-05
5.05103e-05
5.15888e-05
5.26673e-05
5.37458e-05
5.48243e-05
5.59028e-05
5.69813e-05
5.80599e-05
5.91384e-05
6.02169e-05
6.12954e-05
6.23739e-05
6.34524e-05
6.45309e-05
6.56094e-05
6.66879e-05
6.77665e-05
6.8845e-05
6.99235e-05
7.1002e-05
7.20805e-05
7.3159e-05
7.42375e-05
7.5316e-05
7.63945e-05
7.74731e-05
7.85516e-05
7.96301e-05
8.07086e-05
8.17871e-05
8.28656e-05
8.39441e-05
8.50226e-05
8.61012e-05
8.71797e-05
8.82582e-05
8.93367e-05
9.04152e-05
9.14937e-05
2.35475e-05
2.4626e-05
2.57045e-05
2.6783e-05
2.78615e-05
2.894e-05
3.00186e-05
3.10971e-05
3.21756e-05
3.32541e-05
3.43326e-05
3.54111e-05
3.64896e-05
3.75681e-05
3.86466e-05
3.97252e-05
4.08037e-05
4.18822e-05
4.29607e-05
4.40392e-05
4.51177e-05
4.61962e-05
4.72747e-05
4.83532e-05
4.94318e-05
5.05103e-05
5.15888e-05
5.26673e-05
5.37458e-05
5.48243e-05
5.59028e-05
5.69813e-05
5.80599e-05
5.91384e-05
6.02169e-05
6.12954e-05
6.23739e-05
6.34524e-05
6.45309e-05
6.56094e-05
6.66879e-05
6.77665e-05
6.8845e-05
6.99235e-05
7.1002e-05
7.20805e-05
7.3159e-05
7.42375e-05
7.5316e-05
7.63945e-05
7.74731e-05
7.85516e-05
7.96301e-05
8.07086e-05
8.17871e-05
8.28656e-05
8.39441e-05
8.50226e-05
8.61012e-05
8.71797e-05
8.82582e-05
8.93367e-05
9.04152e-05
9.14937e-05
2.35475e-05
2.4626e-05
2.57045e-05
2.6783e-05
2.78615e-05
2.894e-05
3.00186e-05
3.10971e-05
3.21756e-05
3.32541e-05
3.43326e-05
3.54111e-05
3.64896e-05
3.75681e-05
3.86466e-05
3.97252e-05
4.08037e-05
4.18822e-05
4.29607e-05
4.40392e-05
4.51177e-05
4.61962e-05
4.72747e-05
4.83532e-05
4.94318e-05
5.05103e-05
5.15888e-05
5.26673e-05
5.37458e-05
5.48243e-05
5.59028e-05
5.69813e-05
5.80599e-05
5.91384e-05
6.02169e-05
6.12954e-05
6.23739e-05
6.34524e-05
6.45309e-05
6.56094e-05
6.66879e-05
6.77665e-05
6.8845e-05
6.99235e-05
7.1002e-05
7.20805e-05
7.3159e-05
7.42375e-05
7.5316e-05
7.63945e-05
7.74731e-05
7.85516e-05
7.96301e-05
8.07086e-05
8.17871e-05
8.28656e-05
8.39441e-05
8.50226e-05
8.61012e-05
8.71797e-05
8.82582e-05
8.93367e-05
9.04152e-05
9.14937e-05
2.35475e-05
2.4626e-05
2.57045e-05
2.6783e-05
2.78615e-05
2.894e-05
3.00186e-05
3.10971e-05
3.21756e-05
3.32541e-05
3.43326e-05
3.54111e-05
3.64896e-05
3.75681e-05
3.86466e-05
3.97252e-05
4.08037e-05
4.18822e-05
4.29607e-05
4.40392e-05
4.51177e-05
4.61962e-05
4.72747e-05
4.83532e-05
4.94318e-05
5.05103e-05
5.15888e-05
5.26673e-05
5.37458e-05
5.48243e-05
5.59028e-05
5.69813e-05
5.80599e-05
5.91384e-05
6.02169e-05
6.12954e-05
6.23739e-05
6.34524e-05
6.45309e-05
6.56094e-05
6.66879e-05
6.77665e-05
6.8845e-05
6.99235e-05
7.1002e-05
7.20805e-05
7.3159e-05
7.42375e-05
7.5316e-05
7.63945e-05
7.74731e-05
7.85516e-05
7.96301e-05
8.07086e-05
8.17871e-05
8.28656e-05
8.39441e-05
8.50226e-05
8.61012e-05
8.71797e-05
8.82582e-05
8.93367e-05
9.04152e-05
9.14937e-05
2.35475e-05
2.4626e-05
2.57045e-05
2.6783e-05
2.78615e-05
2.894e-05
3.00186e-05
3.10971e-05
3.21756e-05
3.32541e-05
3.43326e-05
3.54111e-05
3.64896e-05
3.75681e-05
3.86466e-05
3.97252e-05
4.08037e-05
4.18822e-05
4.29607e-05
4.40392e-05
4.51177e-05
4.61962e-05
4.72747e-05
4.83532e-05
4.94318e-05
5.05103e-05
5.15888e-05
5.26673e-05
5.37458e-05
5.48243e-05
5.59028e-05
5.69813e-05
5.80599e-05
5.91384e-05
6.02169e-05
6.12954e-05
6.23739e-05
6.34524e-05
6.45309e-05
6.56094e-05
6.66879e-05
6.77665e-05
6.8845e-05
6.99235e-05
7.1002e-05
7.20805e-05
7.3159e-05
7.42375e-05
7.5316e-05
7.63945e-05
7.74731e-05
7.85516e-05
7.96301e-05
8.07086e-05
8.17871e-05
8.28656e-05
8.39441e-05
8.50226e-05
8.61012e-05
8.71797e-05
8.82582e-05
8.93367e-05
9.04152e-05
9.14937e-05
2.35475e-05
2.4626e-05
2.57045e-05
2.6783e-05
2.78615e-05
2.894e-05
3.00186e-05
3.10971e-05
3.21756e-05
3.32541e-05
3.43326e-05
3.54111e-05
3.64896e-05
3.75681e-05
3.86466e-05
3.97252e-05
4.08037e-05
4.18822e-05
4.29607e-05
4.40392e-05
4.51177e-05
4.61962e-05
4.72747e-05
4.83532e-05
4.94318e-05
5.05103e-05
5.15888e-05
5.26673e-05
5.37458e-05
5.48243e-05
5.59028e-05
5.69813e-05
5.80599e-05
5.91384e-05
6.02169e-05
6.12954e-05
6.23739e-05
6.34524e-05
6.45309e-05
6.56094e-05
6.66879e-05
6.77665e-05
6.8845e-05
6.99235e-05
7.1002e-05
7.20805e-05
7.3159e-05
7.42375e-05
7.5316e-05
7.63945e-05
7.74731e-05
7.85516e-05
7.96301e-05
8.07086e-05
8.17871e-05
8.28656e-05
8.39441e-05
8.50226e-05
8.61012e-05
8.71797e-05
8.82582e-05
8.93367e-05
9.04152e-05
9.14937e-05
2.35475e-05
2.4626e-05
2.57045e-05
2.6783e-05
2.78615e-05
2.894e-05
3.00186e-05
3.10971e-05
3.21756e-05
3.32541e-05
3.43326e-05
3.54111e-05
3.64896e-05
3.75681e-05
3.86466e-05
3.97252e-05
4.08037e-05
4.18822e-05
4.29607e-05
4.40392e-05
4.51177e-05