/*--------------------------------*- C++ -*----------------------------------*\
| =========                 |                                                 |
| \\      /  F ield         | foam-extend: Open Source CFD                    |
|  \\    /   O peration     | Version:  3.0                                   |
|   \\  /    A nd           | Web:         http://www.extend-project.de       |
|    \\/     M anipulation  |                                                 |
\*---------------------------------------------------------------------------*/
FoamFile
{
    version     2.0;
    format      ascii;
    class       volScalarField;
    location    "constant/polyMesh";
    object      Volumes;
}
// * * * * * * * * * * * * * * * * * * * * * * * * * * * * * * * * * * * * * //

dimensions      [0 3 0 0 0 0 0];

internalField   nonuniform List<scalar> 
672
(
0.0001149728194
0.0001485532016
0.000187823571
0.0002336248944
0.0002869160817
0.0003487901518
0.0004204925901
0.0005034421966
0.0005992547526
0.0007097699016
0.0008370816557
0.0009835730362
0.0001149728195
0.0001485532018
0.0001878235711
0.0002336248942
0.0002869160816
0.0003487901521
0.0004204925902
0.0005034421962
0.0005992547529
0.0007097699015
0.0008370816558
0.0009835730364
0.0001149728193
0.0001485532017
0.0001878235712
0.0002336248944
0.000286916082
0.0003487901521
0.0004204925902
0.0005034421961
0.0005992547529
0.0007097699023
0.0008370816559
0.0009835730364
0.0001149728192
0.0001485532014
0.0001878235711
0.0002336248944
0.0002869160819
0.0003487901513
0.0004204925902
0.000503442196
0.0005992547527
0.0007097699015
0.000837081656
0.0009835730359
0.0001149728196
0.0001485532017
0.000187823571
0.0002336248943
0.0002869160817
0.0003487901513
0.0004204925907
0.0005034421964
0.0005992547533
0.0007097699017
0.0008370816558
0.0009835730356
0.0001149728194
0.0001485532015
0.0001878235713
0.0002336248949
0.0002869160817
0.0003487901516
0.0004204925906
0.0005034421964
0.0005992547528
0.0007097699015
0.0008370816556
0.0009835730363
0.0001149728192
0.0001485532015
0.0001878235711
0.0002336248943
0.0002869160816
0.0003487901515
0.0004204925905
0.000503442196
0.0005992547529
0.0007097699017
0.0008370816557
0.0009835730363
0.0001149728192
0.0001485532015
0.0001878235711
0.0002336248943
0.0002869160816
0.0003487901515
0.0004204925905
0.000503442196
0.0005992547529
0.0007097699017
0.0008370816557
0.0009835730363
0.0001149728194
0.0001485532015
0.0001878235713
0.0002336248949
0.0002869160817
0.0003487901516
0.0004204925906
0.0005034421964
0.0005992547528
0.0007097699015
0.0008370816556
0.0009835730363
0.0001149728196
0.0001485532017
0.000187823571
0.0002336248943
0.0002869160817
0.0003487901513
0.0004204925907
0.0005034421964
0.0005992547533
0.0007097699017
0.0008370816558
0.0009835730356
0.0001149728192
0.0001485532014
0.0001878235711
0.0002336248944
0.0002869160819
0.0003487901513
0.0004204925902
0.000503442196
0.0005992547527
0.0007097699015
0.000837081656
0.0009835730359
0.0001149728193
0.0001485532017
0.0001878235712
0.0002336248944
0.000286916082
0.0003487901521
0.0004204925902
0.0005034421961
0.0005992547529
0.0007097699023
0.0008370816559
0.0009835730364
0.0001149728195
0.0001485532018
0.0001878235711
0.0002336248942
0.0002869160816
0.0003487901521
0.0004204925902
0.0005034421962
0.0005992547529
0.0007097699015
0.0008370816558
0.0009835730364
0.0001149728194
0.0001485532016
0.000187823571
0.0002336248944
0.0002869160817
0.0003487901518
0.0004204925901
0.0005034421966
0.0005992547526
0.0007097699016
0.0008370816557
0.0009835730362
0.0001149728194
0.0001485532016
0.000187823571
0.0002336248944
0.0002869160817
0.0003487901518
0.0004204925901
0.0005034421966
0.0005992547526
0.0007097699016
0.0008370816557
0.0009835730362
0.0001149728195
0.0001485532018
0.0001878235711
0.0002336248942
0.0002869160816
0.0003487901521
0.0004204925902
0.0005034421962
0.0005992547529
0.0007097699015
0.0008370816558
0.0009835730364
0.0001149728193
0.0001485532017
0.0001878235712
0.0002336248944
0.000286916082
0.0003487901521
0.0004204925902
0.0005034421961
0.0005992547529
0.0007097699023
0.0008370816559
0.0009835730364
0.0001149728192
0.0001485532014
0.0001878235711
0.0002336248944
0.0002869160819
0.0003487901513
0.0004204925902
0.000503442196
0.0005992547527
0.0007097699015
0.000837081656
0.0009835730359
0.0001149728196
0.0001485532017
0.000187823571
0.0002336248943
0.0002869160817
0.0003487901513
0.0004204925907
0.0005034421964
0.0005992547533
0.0007097699017
0.0008370816558
0.0009835730356
0.0001149728194
0.0001485532015
0.0001878235713
0.0002336248949
0.0002869160817
0.0003487901516
0.0004204925906
0.0005034421964
0.0005992547528
0.0007097699015
0.0008370816556
0.0009835730363
0.0001149728192
0.0001485532015
0.0001878235711
0.0002336248943
0.0002869160816
0.0003487901515
0.0004204925905
0.000503442196
0.0005992547529
0.0007097699017
0.0008370816557
0.0009835730363
0.0001149728192
0.0001485532015
0.0001878235711
0.0002336248943
0.0002869160816
0.0003487901515
0.0004204925905
0.000503442196
0.0005992547529
0.0007097699017
0.0008370816557
0.0009835730363
0.0001149728194
0.0001485532015
0.0001878235713
0.0002336248949
0.0002869160817
0.0003487901516
0.0004204925906
0.0005034421964
0.0005992547528
0.0007097699015
0.0008370816556
0.0009835730363
0.0001149728196
0.0001485532017
0.000187823571
0.0002336248943
0.0002869160817
0.0003487901513
0.0004204925907
0.0005034421964
0.0005992547533
0.0007097699017
0.0008370816558
0.0009835730356
0.0001149728192
0.0001485532014
0.0001878235711
0.0002336248944
0.0002869160819
0.0003487901513
0.0004204925902
0.000503442196
0.0005992547527
0.0007097699015
0.000837081656
0.0009835730359
0.0001149728193
0.0001485532017
0.0001878235712
0.0002336248944
0.000286916082
0.0003487901521
0.0004204925902
0.0005034421961
0.0005992547529
0.0007097699023
0.0008370816559
0.0009835730364
0.0001149728195
0.0001485532018
0.0001878235711
0.0002336248942
0.0002869160816
0.0003487901521
0.0004204925902
0.0005034421962
0.0005992547529
0.0007097699015
0.0008370816558
0.0009835730364
0.0001149728194
0.0001485532016
0.000187823571
0.0002336248944
0.0002869160817
0.0003487901518
0.0004204925901
0.0005034421966
0.0005992547526
0.0007097699016
0.0008370816557
0.0009835730362
0.0001149728194
0.0001485532016
0.000187823571
0.0002336248944
0.0002869160817
0.0003487901518
0.0004204925901
0.0005034421966
0.0005992547526
0.0007097699016
0.0008370816557
0.0009835730362
0.0001149728195
0.0001485532018
0.0001878235711
0.0002336248942
0.0002869160816
0.0003487901521
0.0004204925902
0.0005034421962
0.0005992547529
0.0007097699015
0.0008370816558
0.0009835730364
0.0001149728193
0.0001485532017
0.0001878235712
0.0002336248944
0.000286916082
0.0003487901521
0.0004204925902
0.0005034421961
0.0005992547529
0.0007097699023
0.0008370816559
0.0009835730364
0.0001149728192
0.0001485532014
0.0001878235711
0.0002336248944
0.0002869160819
0.0003487901513
0.0004204925902
0.000503442196
0.0005992547527
0.0007097699015
0.000837081656
0.0009835730359
0.0001149728196
0.0001485532017
0.000187823571
0.0002336248943
0.0002869160817
0.0003487901513
0.0004204925907
0.0005034421964
0.0005992547533
0.0007097699017
0.0008370816558
0.0009835730356
0.0001149728194
0.0001485532015
0.0001878235713
0.0002336248949
0.0002869160817
0.0003487901516
0.0004204925906
0.0005034421964
0.0005992547528
0.0007097699015
0.0008370816556
0.0009835730363
0.0001149728192
0.0001485532015
0.0001878235711
0.0002336248943
0.0002869160816
0.0003487901515
0.0004204925905
0.000503442196
0.0005992547529
0.0007097699017
0.0008370816557
0.0009835730363
0.0001149728192
0.0001485532015
0.0001878235711
0.0002336248943
0.0002869160816
0.0003487901515
0.0004204925905
0.000503442196
0.0005992547529
0.0007097699017
0.0008370816557
0.0009835730363
0.0001149728194
0.0001485532015
0.0001878235713
0.0002336248949
0.0002869160817
0.0003487901516
0.0004204925906
0.0005034421964
0.0005992547528
0.0007097699015
0.0008370816556
0.0009835730363
0.0001149728196
0.0001485532017
0.000187823571
0.0002336248943
0.0002869160817
0.0003487901513
0.0004204925907
0.0005034421964
0.0005992547533
0.0007097699017
0.0008370816558
0.0009835730356
0.0001149728192
0.0001485532014
0.0001878235711
0.0002336248944
0.0002869160819
0.0003487901513
0.0004204925902
0.000503442196
0.0005992547527
0.0007097699015
0.000837081656
0.0009835730359
0.0001149728193
0.0001485532017
0.0001878235712
0.0002336248944
0.000286916082
0.0003487901521
0.0004204925902
0.0005034421961
0.0005992547529
0.0007097699023
0.0008370816559
0.0009835730364
0.0001149728195
0.0001485532018
0.0001878235711
0.0002336248942
0.0002869160816
0.0003487901521
0.0004204925902
0.0005034421962
0.0005992547529
0.0007097699015
0.0008370816558
0.0009835730364
0.0001149728194
0.0001485532016
0.000187823571
0.0002336248944
0.0002869160817
0.0003487901518
0.0004204925901
0.0005034421966
0.0005992547526
0.0007097699016
0.0008370816557
0.0009835730362
0.0001149728194
0.0001485532016
0.000187823571
0.0002336248944
0.0002869160817
0.0003487901518
0.0004204925901
0.0005034421966
0.0005992547526
0.0007097699016
0.0008370816557
0.0009835730362
0.0001149728195
0.0001485532018
0.0001878235711
0.0002336248942
0.0002869160816
0.0003487901521
0.0004204925902
0.0005034421962
0.0005992547529
0.0007097699015
0.0008370816558
0.0009835730364
0.0001149728193
0.0001485532017
0.0001878235712
0.0002336248944
0.000286916082
0.0003487901521
0.0004204925902
0.0005034421961
0.0005992547529
0.0007097699023
0.0008370816559
0.0009835730364
0.0001149728192
0.0001485532014
0.0001878235711
0.0002336248944
0.0002869160819
0.0003487901513
0.0004204925902
0.000503442196
0.0005992547527
0.0007097699015
0.000837081656
0.0009835730359
0.0001149728196
0.0001485532017
0.000187823571
0.0002336248943
0.0002869160817
0.0003487901513
0.0004204925907
0.0005034421964
0.0005992547533
0.0007097699017
0.0008370816558
0.0009835730356
0.0001149728194
0.0001485532015
0.0001878235713
0.0002336248949
0.0002869160817
0.0003487901516
0.0004204925906
0.0005034421964
0.0005992547528
0.0007097699015
0.0008370816556
0.0009835730363
0.0001149728192
0.0001485532015
0.0001878235711
0.0002336248943
0.0002869160816
0.0003487901515
0.0004204925905
0.000503442196
0.0005992547529
0.0007097699017
0.0008370816557
0.0009835730363
0.0001149728192
0.0001485532015
0.0001878235711
0.0002336248943
0.0002869160816
0.0003487901515
0.0004204925905
0.000503442196
0.0005992547529
0.0007097699017
0.0008370816557
0.0009835730363
0.0001149728194
0.0001485532015
0.0001878235713
0.0002336248949
0.0002869160817
0.0003487901516
0.0004204925906
0.0005034421964
0.0005992547528
0.0007097699015
0.0008370816556
0.0009835730363
0.0001149728196
0.0001485532017
0.000187823571
0.0002336248943
0.0002869160817
0.0003487901513
0.0004204925907
0.0005034421964
0.0005992547533
0.0007097699017
0.0008370816558
0.0009835730356
0.0001149728192
0.0001485532014
0.0001878235711
0.0002336248944
0.0002869160819
0.0003487901513
0.0004204925902
0.000503442196
0.0005992547527
0.0007097699015
0.000837081656
0.0009835730359
0.0001149728193
0.0001485532017
0.0001878235712
0.0002336248944
0.000286916082
0.0003487901521
0.0004204925902
0.0005034421961
0.0005992547529
0.0007097699023
0.0008370816559
0.0009835730364
0.0001149728195
0.0001485532018
0.0001878235711
0.0002336248942
0.0002869160816
0.0003487901521
0.0004204925902
0.0005034421962
0.0005992547529
0.0007097699015
0.0008370816558
0.0009835730364
0.0001149728194
0.0001485532016
0.000187823571
0.0002336248944
0.0002869160817
0.0003487901518
0.0004204925901
0.0005034421966
0.0005992547526
0.0007097699016
0.0008370816557
0.0009835730362
)
;

boundaryField
{
    out
    {
        type            calculated;
        value           uniform 0;
    }
    in
    {
        type            calculated;
        value           uniform 0;
    }
    frontAndBack
    {
        type            empty;
    }
}


// ************************************************************************* //
