/*--------------------------------*- C++ -*----------------------------------*\
| =========                 |                                                 |
| \\      /  F ield         | foam-extend: Open Source CFD                    |
|  \\    /   O peration     | Version:  3.0                                   |
|   \\  /    A nd           | Web:         http://www.extend-project.de       |
|    \\/     M anipulation  |                                                 |
\*---------------------------------------------------------------------------*/
FoamFile
{
    version     2.0;
    format      ascii;
    class       volScalarField;
    location    "constant/polyMesh";
    object      Volumes;
}
// * * * * * * * * * * * * * * * * * * * * * * * * * * * * * * * * * * * * * //

dimensions      [0 3 0 0 0 0 0];

internalField   nonuniform List<scalar> 
2688
(
2.735682969e-05
3.131505028e-05
3.558828776e-05
4.019822725e-05
4.516796624e-05
5.052210332e-05
5.628683481e-05
6.249005478e-05
6.916146311e-05
7.633268095e-05
8.403736991e-05
9.231136488e-05
0.0001011928074
0.0001107222948
0.000120943033
0.000131901004
0.0001436451369
0.0001562274989
0.0001697034886
0.0001841320491
0.0001995758907
0.0002161017258
0.0002337805247
0.0002526877804
2.735682965e-05
3.131505031e-05
3.558828771e-05
4.019822729e-05
4.516796617e-05
5.052210333e-05
5.628683487e-05
6.249005469e-05
6.916146317e-05
7.633268091e-05
8.403736995e-05
9.231136476e-05
0.0001011928075
0.0001107222947
0.0001209430331
0.0001319010038
0.000143645137
0.0001562274988
0.0001697034886
0.0001841320494
0.0001995758907
0.0002161017257
0.0002337805249
0.0002526877805
2.735682966e-05
3.131505038e-05
3.558828767e-05
4.019822728e-05
4.516796616e-05
5.052210333e-05
5.62868349e-05
6.249005467e-05
6.916146324e-05
7.633268085e-05
8.403737002e-05
9.231136481e-05
0.0001011928074
0.0001107222947
0.0001209430334
0.0001319010037
0.0001436451371
0.0001562274988
0.0001697034887
0.0001841320492
0.0001995758904
0.0002161017258
0.0002337805248
0.0002526877802
2.735682969e-05
3.131505037e-05
3.558828768e-05
4.019822723e-05
4.516796617e-05
5.052210339e-05
5.628683501e-05
6.249005463e-05
6.91614632e-05
7.633268088e-05
8.403736999e-05
9.231136475e-05
0.0001011928073
0.0001107222947
0.0001209430332
0.0001319010038
0.0001436451368
0.0001562274986
0.0001697034887
0.0001841320494
0.0001995758906
0.0002161017257
0.0002337805246
0.0002526877808
2.735682965e-05
3.131505032e-05
3.558828774e-05
4.019822729e-05
4.516796609e-05
5.052210325e-05
5.628683494e-05
6.249005462e-05
6.916146319e-05
7.633268072e-05
8.403736998e-05
9.23113649e-05
0.0001011928075
0.0001107222948
0.0001209430332
0.0001319010037
0.000143645137
0.000156227499
0.0001697034887
0.0001841320491
0.0001995758904
0.0002161017256
0.0002337805246
0.0002526877805
2.735682966e-05
3.131505031e-05
3.558828776e-05
4.019822725e-05
4.516796622e-05
5.052210327e-05
5.628683488e-05
6.249005485e-05
6.91614633e-05
7.633268099e-05
8.403737016e-05
9.231136476e-05
0.0001011928075
0.0001107222948
0.0001209430332
0.0001319010038
0.000143645137
0.0001562274987
0.0001697034885
0.0001841320491
0.0001995758906
0.0002161017259
0.0002337805247
0.0002526877808
2.735682965e-05
3.131505036e-05
3.558828779e-05
4.019822726e-05
4.516796613e-05
5.052210339e-05
5.628683486e-05
6.249005462e-05
6.916146305e-05
7.633268071e-05
8.403737009e-05
9.231136492e-05
0.0001011928074
0.0001107222949
0.0001209430332
0.0001319010038
0.000143645137
0.0001562274989
0.0001697034886
0.0001841320492
0.0001995758907
0.0002161017257
0.0002337805246
0.0002526877808
2.735682958e-05
3.131505042e-05
3.558828767e-05
4.019822706e-05
4.516796618e-05
5.05221034e-05
5.62868349e-05
6.249005477e-05
6.916146323e-05
7.633268063e-05
8.403737015e-05
9.23113647e-05
0.0001011928072
0.0001107222949
0.0001209430333
0.0001319010038
0.000143645137
0.0001562274988
0.0001697034887
0.0001841320492
0.0001995758907
0.0002161017257
0.0002337805248
0.0002526877804
2.735682963e-05
3.131505044e-05
3.558828783e-05
4.019822723e-05
4.516796604e-05
5.052210316e-05
5.628683493e-05
6.249005482e-05
6.916146332e-05
7.633268079e-05
8.403737013e-05
9.231136484e-05
0.0001011928075
0.0001107222946
0.0001209430331
0.0001319010039
0.0001436451372
0.0001562274989
0.0001697034884
0.0001841320491
0.0001995758908
0.000216101726
0.0002337805245
0.0002526877804
2.735682968e-05
3.131505038e-05
3.558828768e-05
4.019822735e-05
4.51679662e-05
5.052210334e-05
5.62868348e-05
6.249005459e-05
6.91614633e-05
7.633268088e-05
8.403736992e-05
9.231136486e-05
0.0001011928073
0.0001107222947
0.0001209430332
0.0001319010038
0.0001436451367
0.0001562274987
0.0001697034889
0.0001841320495
0.0001995758904
0.0002161017256
0.0002337805244
0.0002526877804
2.735682957e-05
3.131505032e-05
3.558828767e-05
4.019822729e-05
4.516796609e-05
5.052210346e-05
5.628683484e-05
6.249005476e-05
6.916146329e-05
7.633268066e-05
8.403737006e-05
9.231136486e-05
0.0001011928075
0.0001107222949
0.0001209430332
0.0001319010039
0.0001436451367
0.0001562274991
0.0001697034886
0.0001841320493
0.0001995758905
0.0002161017259
0.0002337805248
0.0002526877808
2.735682977e-05
3.131505047e-05
3.558828783e-05
4.019822721e-05
4.516796629e-05
5.052210337e-05
5.628683488e-05
6.249005464e-05
6.91614631e-05
7.633268071e-05
8.403737017e-05
9.231136485e-05
0.0001011928075
0.0001107222947
0.0001209430331
0.0001319010039
0.000143645137
0.000156227499
0.0001697034882
0.000184132049
0.0001995758903
0.0002161017259
0.0002337805246
0.0002526877809
2.735682962e-05
3.131505026e-05
3.558828764e-05
4.019822714e-05
4.516796604e-05
5.05221033e-05
5.628683507e-05
6.249005471e-05
6.91614632e-05
7.633268099e-05
8.403737006e-05
9.231136494e-05
0.0001011928072
0.0001107222948
0.0001209430333
0.0001319010039
0.000143645137
0.0001562274988
0.0001697034884
0.0001841320497
0.0001995758905
0.0002161017257
0.0002337805249
0.0002526877809
2.735682963e-05
3.131505036e-05
3.558828776e-05
4.019822737e-05
4.51679661e-05
5.052210333e-05
5.628683484e-05
6.249005469e-05
6.916146322e-05
7.633268088e-05
8.403736987e-05
9.231136477e-05
0.0001011928075
0.0001107222948
0.0001209430332
0.0001319010039
0.0001436451368
0.0001562274989
0.0001697034886
0.000184132049
0.0001995758904
0.0002161017258
0.0002337805249
0.0002526877806
2.735682963e-05
3.131505036e-05
3.558828776e-05
4.019822737e-05
4.51679661e-05
5.052210333e-05
5.628683484e-05
6.249005469e-05
6.916146322e-05
7.633268088e-05
8.403736987e-05
9.231136477e-05
0.0001011928075
0.0001107222948
0.0001209430332
0.0001319010039
0.0001436451368
0.0001562274989
0.0001697034886
0.000184132049
0.0001995758904
0.0002161017258
0.0002337805249
0.0002526877806
2.735682962e-05
3.131505026e-05
3.558828764e-05
4.019822714e-05
4.516796604e-05
5.05221033e-05
5.628683507e-05
6.249005471e-05
6.91614632e-05
7.633268099e-05
8.403737006e-05
9.231136494e-05
0.0001011928072
0.0001107222948
0.0001209430333
0.0001319010039
0.000143645137
0.0001562274988
0.0001697034884
0.0001841320497
0.0001995758905
0.0002161017257
0.0002337805249
0.0002526877809
2.735682977e-05
3.131505047e-05
3.558828783e-05
4.019822721e-05
4.516796629e-05
5.052210337e-05
5.628683488e-05
6.249005464e-05
6.91614631e-05
7.633268071e-05
8.403737017e-05
9.231136485e-05
0.0001011928075
0.0001107222947
0.0001209430331
0.0001319010039
0.000143645137
0.000156227499
0.0001697034882
0.000184132049
0.0001995758903
0.0002161017259
0.0002337805246
0.0002526877809
2.735682957e-05
3.131505032e-05
3.558828767e-05
4.019822729e-05
4.516796609e-05
5.052210346e-05
5.628683484e-05
6.249005476e-05
6.916146329e-05
7.633268066e-05
8.403737006e-05
9.231136486e-05
0.0001011928075
0.0001107222949
0.0001209430332
0.0001319010039
0.0001436451367
0.0001562274991
0.0001697034886
0.0001841320493
0.0001995758905
0.0002161017259
0.0002337805248
0.0002526877808
2.735682968e-05
3.131505038e-05
3.558828768e-05
4.019822735e-05
4.51679662e-05
5.052210334e-05
5.62868348e-05
6.249005459e-05
6.91614633e-05
7.633268088e-05
8.403736992e-05
9.231136486e-05
0.0001011928073
0.0001107222947
0.0001209430332
0.0001319010038
0.0001436451367
0.0001562274987
0.0001697034889
0.0001841320495
0.0001995758904
0.0002161017256
0.0002337805244
0.0002526877804
2.735682963e-05
3.131505044e-05
3.558828783e-05
4.019822723e-05
4.516796604e-05
5.052210316e-05
5.628683493e-05
6.249005482e-05
6.916146332e-05
7.633268079e-05
8.403737013e-05
9.231136484e-05
0.0001011928075
0.0001107222946
0.0001209430331
0.0001319010039
0.0001436451372
0.0001562274989
0.0001697034884
0.0001841320491
0.0001995758908
0.000216101726
0.0002337805245
0.0002526877804
2.735682958e-05
3.131505042e-05
3.558828767e-05
4.019822706e-05
4.516796618e-05
5.05221034e-05
5.62868349e-05
6.249005477e-05
6.916146323e-05
7.633268063e-05
8.403737015e-05
9.23113647e-05
0.0001011928072
0.0001107222949
0.0001209430333
0.0001319010038
0.000143645137
0.0001562274988
0.0001697034887
0.0001841320492
0.0001995758907
0.0002161017257
0.0002337805248
0.0002526877804
2.735682965e-05
3.131505036e-05
3.558828779e-05
4.019822726e-05
4.516796613e-05
5.052210339e-05
5.628683486e-05
6.249005462e-05
6.916146305e-05
7.633268071e-05
8.403737009e-05
9.231136492e-05
0.0001011928074
0.0001107222949
0.0001209430332
0.0001319010038
0.000143645137
0.0001562274989
0.0001697034886
0.0001841320492
0.0001995758907
0.0002161017257
0.0002337805246
0.0002526877808
2.735682966e-05
3.131505031e-05
3.558828776e-05
4.019822725e-05
4.516796622e-05
5.052210327e-05
5.628683488e-05
6.249005485e-05
6.91614633e-05
7.633268099e-05
8.403737016e-05
9.231136476e-05
0.0001011928075
0.0001107222948
0.0001209430332
0.0001319010038
0.000143645137
0.0001562274987
0.0001697034885
0.0001841320491
0.0001995758906
0.0002161017259
0.0002337805247
0.0002526877808
2.735682965e-05
3.131505032e-05
3.558828774e-05
4.019822729e-05
4.516796609e-05
5.052210325e-05
5.628683494e-05
6.249005462e-05
6.916146319e-05
7.633268072e-05
8.403736998e-05
9.23113649e-05
0.0001011928075
0.0001107222948
0.0001209430332
0.0001319010037
0.000143645137
0.000156227499
0.0001697034887
0.0001841320491
0.0001995758904
0.0002161017256
0.0002337805246
0.0002526877805
2.735682969e-05
3.131505037e-05
3.558828768e-05
4.019822723e-05
4.516796617e-05
5.052210339e-05
5.628683501e-05
6.249005463e-05
6.91614632e-05
7.633268088e-05
8.403736999e-05
9.231136475e-05
0.0001011928073
0.0001107222947
0.0001209430332
0.0001319010038
0.0001436451368
0.0001562274986
0.0001697034887
0.0001841320494
0.0001995758906
0.0002161017257
0.0002337805246
0.0002526877808
2.735682966e-05
3.131505038e-05
3.558828767e-05
4.019822728e-05
4.516796616e-05
5.052210333e-05
5.62868349e-05
6.249005467e-05
6.916146324e-05
7.633268085e-05
8.403737002e-05
9.231136481e-05
0.0001011928074
0.0001107222947
0.0001209430334
0.0001319010037
0.0001436451371
0.0001562274988
0.0001697034887
0.0001841320492
0.0001995758904
0.0002161017258
0.0002337805248
0.0002526877802
2.735682965e-05
3.131505031e-05
3.558828771e-05
4.019822729e-05
4.516796617e-05
5.052210333e-05
5.628683487e-05
6.249005469e-05
6.916146317e-05
7.633268091e-05
8.403736995e-05
9.231136476e-05
0.0001011928075
0.0001107222947
0.0001209430331
0.0001319010038
0.000143645137
0.0001562274988
0.0001697034886
0.0001841320494
0.0001995758907
0.0002161017257
0.0002337805249
0.0002526877805
2.735682969e-05
3.131505028e-05
3.558828776e-05
4.019822725e-05
4.516796624e-05
5.052210332e-05
5.628683481e-05
6.249005478e-05
6.916146311e-05
7.633268095e-05
8.403736991e-05
9.231136488e-05
0.0001011928074
0.0001107222948
0.000120943033
0.000131901004
0.0001436451369
0.0001562274989
0.0001697034886
0.0001841320491
0.0001995758907
0.0002161017258
0.0002337805247
0.0002526877804
2.735682969e-05
3.131505028e-05
3.558828776e-05
4.019822725e-05
4.516796624e-05
5.052210332e-05
5.628683481e-05
6.249005478e-05
6.916146311e-05
7.633268095e-05
8.403736991e-05
9.231136488e-05
0.0001011928074
0.0001107222948
0.000120943033
0.000131901004
0.0001436451369
0.0001562274989
0.0001697034886
0.0001841320491
0.0001995758907
0.0002161017258
0.0002337805247
0.0002526877804
2.735682965e-05
3.131505031e-05
3.558828771e-05
4.019822729e-05
4.516796617e-05
5.052210333e-05
5.628683487e-05
6.249005469e-05
6.916146317e-05
7.633268091e-05
8.403736995e-05
9.231136476e-05
0.0001011928075
0.0001107222947
0.0001209430331
0.0001319010038
0.000143645137
0.0001562274988
0.0001697034886
0.0001841320494
0.0001995758907
0.0002161017257
0.0002337805249
0.0002526877805
2.735682966e-05
3.131505038e-05
3.558828767e-05
4.019822728e-05
4.516796616e-05
5.052210333e-05
5.62868349e-05
6.249005467e-05
6.916146324e-05
7.633268085e-05
8.403737002e-05
9.231136481e-05
0.0001011928074
0.0001107222947
0.0001209430334
0.0001319010037
0.0001436451371
0.0001562274988
0.0001697034887
0.0001841320492
0.0001995758904
0.0002161017258
0.0002337805248
0.0002526877802
2.735682969e-05
3.131505037e-05
3.558828768e-05
4.019822723e-05
4.516796617e-05
5.052210339e-05
5.628683501e-05
6.249005463e-05
6.91614632e-05
7.633268088e-05
8.403736999e-05
9.231136475e-05
0.0001011928073
0.0001107222947
0.0001209430332
0.0001319010038
0.0001436451368
0.0001562274986
0.0001697034887
0.0001841320494
0.0001995758906
0.0002161017257
0.0002337805246
0.0002526877808
2.735682965e-05
3.131505032e-05
3.558828774e-05
4.019822729e-05
4.516796609e-05
5.052210325e-05
5.628683494e-05
6.249005462e-05
6.916146319e-05
7.633268072e-05
8.403736998e-05
9.23113649e-05
0.0001011928075
0.0001107222948
0.0001209430332
0.0001319010037
0.000143645137
0.000156227499
0.0001697034887
0.0001841320491
0.0001995758904
0.0002161017256
0.0002337805246
0.0002526877805
2.735682966e-05
3.131505031e-05
3.558828776e-05
4.019822725e-05
4.516796622e-05
5.052210327e-05
5.628683488e-05
6.249005485e-05
6.91614633e-05
7.633268099e-05
8.403737016e-05
9.231136476e-05
0.0001011928075
0.0001107222948
0.0001209430332
0.0001319010038
0.000143645137
0.0001562274987
0.0001697034885
0.0001841320491
0.0001995758906
0.0002161017259
0.0002337805247
0.0002526877808
2.735682965e-05
3.131505036e-05
3.558828779e-05
4.019822726e-05
4.516796613e-05
5.052210339e-05
5.628683486e-05
6.249005462e-05
6.916146305e-05
7.633268071e-05
8.403737009e-05
9.231136492e-05
0.0001011928074
0.0001107222949
0.0001209430332
0.0001319010038
0.000143645137
0.0001562274989
0.0001697034886
0.0001841320492
0.0001995758907
0.0002161017257
0.0002337805246
0.0002526877808
2.735682958e-05
3.131505042e-05
3.558828767e-05
4.019822706e-05
4.516796618e-05
5.05221034e-05
5.62868349e-05
6.249005477e-05
6.916146323e-05
7.633268063e-05
8.403737015e-05
9.23113647e-05
0.0001011928072
0.0001107222949
0.0001209430333
0.0001319010038
0.000143645137
0.0001562274988
0.0001697034887
0.0001841320492
0.0001995758907
0.0002161017257
0.0002337805248
0.0002526877804
2.735682963e-05
3.131505044e-05
3.558828783e-05
4.019822723e-05
4.516796604e-05
5.052210316e-05
5.628683493e-05
6.249005482e-05
6.916146332e-05
7.633268079e-05
8.403737013e-05
9.231136484e-05
0.0001011928075
0.0001107222946
0.0001209430331
0.0001319010039
0.0001436451372
0.0001562274989
0.0001697034884
0.0001841320491
0.0001995758908
0.000216101726
0.0002337805245
0.0002526877804
2.735682968e-05
3.131505038e-05
3.558828768e-05
4.019822735e-05
4.51679662e-05
5.052210334e-05
5.62868348e-05
6.249005459e-05
6.91614633e-05
7.633268088e-05
8.403736992e-05
9.231136486e-05
0.0001011928073
0.0001107222947
0.0001209430332
0.0001319010038
0.0001436451367
0.0001562274987
0.0001697034889
0.0001841320495
0.0001995758904
0.0002161017256
0.0002337805244
0.0002526877804
2.735682957e-05
3.131505032e-05
3.558828767e-05
4.019822729e-05
4.516796609e-05
5.052210346e-05
5.628683484e-05
6.249005476e-05
6.916146329e-05
7.633268066e-05
8.403737006e-05
9.231136486e-05
0.0001011928075
0.0001107222949
0.0001209430332
0.0001319010039
0.0001436451367
0.0001562274991
0.0001697034886
0.0001841320493
0.0001995758905
0.0002161017259
0.0002337805248
0.0002526877808
2.735682977e-05
3.131505047e-05
3.558828783e-05
4.019822721e-05
4.516796629e-05
5.052210337e-05
5.628683488e-05
6.249005464e-05
6.91614631e-05
7.633268071e-05
8.403737017e-05
9.231136485e-05
0.0001011928075
0.0001107222947
0.0001209430331
0.0001319010039
0.000143645137
0.000156227499
0.0001697034882
0.000184132049
0.0001995758903
0.0002161017259
0.0002337805246
0.0002526877809
2.735682962e-05
3.131505026e-05
3.558828764e-05
4.019822714e-05
4.516796604e-05
5.05221033e-05
5.628683507e-05
6.249005471e-05
6.91614632e-05
7.633268099e-05
8.403737006e-05
9.231136494e-05
0.0001011928072
0.0001107222948
0.0001209430333
0.0001319010039
0.000143645137
0.0001562274988
0.0001697034884
0.0001841320497
0.0001995758905
0.0002161017257
0.0002337805249
0.0002526877809
2.735682963e-05
3.131505036e-05
3.558828776e-05
4.019822737e-05
4.51679661e-05
5.052210333e-05
5.628683484e-05
6.249005469e-05
6.916146322e-05
7.633268088e-05
8.403736987e-05
9.231136477e-05
0.0001011928075
0.0001107222948
0.0001209430332
0.0001319010039
0.0001436451368
0.0001562274989
0.0001697034886
0.000184132049
0.0001995758904
0.0002161017258
0.0002337805249
0.0002526877806
2.735682963e-05
3.131505036e-05
3.558828776e-05
4.019822737e-05
4.51679661e-05
5.052210333e-05
5.628683484e-05
6.249005469e-05
6.916146322e-05
7.633268088e-05
8.403736987e-05
9.231136477e-05
0.0001011928075
0.0001107222948
0.0001209430332
0.0001319010039
0.0001436451368
0.0001562274989
0.0001697034886
0.000184132049
0.0001995758904
0.0002161017258
0.0002337805249
0.0002526877806
2.735682962e-05
3.131505026e-05
3.558828764e-05
4.019822714e-05
4.516796604e-05
5.05221033e-05
5.628683507e-05
6.249005471e-05
6.91614632e-05
7.633268099e-05
8.403737006e-05
9.231136494e-05
0.0001011928072
0.0001107222948
0.0001209430333
0.0001319010039
0.000143645137
0.0001562274988
0.0001697034884
0.0001841320497
0.0001995758905
0.0002161017257
0.0002337805249
0.0002526877809
2.735682977e-05
3.131505047e-05
3.558828783e-05
4.019822721e-05
4.516796629e-05
5.052210337e-05
5.628683488e-05
6.249005464e-05
6.91614631e-05
7.633268071e-05
8.403737017e-05
9.231136485e-05
0.0001011928075
0.0001107222947
0.0001209430331
0.0001319010039
0.000143645137
0.000156227499
0.0001697034882
0.000184132049
0.0001995758903
0.0002161017259
0.0002337805246
0.0002526877809
2.735682957e-05
3.131505032e-05
3.558828767e-05
4.019822729e-05
4.516796609e-05
5.052210346e-05
5.628683484e-05
6.249005476e-05
6.916146329e-05
7.633268066e-05
8.403737006e-05
9.231136486e-05
0.0001011928075
0.0001107222949
0.0001209430332
0.0001319010039
0.0001436451367
0.0001562274991
0.0001697034886
0.0001841320493
0.0001995758905
0.0002161017259
0.0002337805248
0.0002526877808
2.735682968e-05
3.131505038e-05
3.558828768e-05
4.019822735e-05
4.51679662e-05
5.052210334e-05
5.62868348e-05
6.249005459e-05
6.91614633e-05
7.633268088e-05
8.403736992e-05
9.231136486e-05
0.0001011928073
0.0001107222947
0.0001209430332
0.0001319010038
0.0001436451367
0.0001562274987
0.0001697034889
0.0001841320495
0.0001995758904
0.0002161017256
0.0002337805244
0.0002526877804
2.735682963e-05
3.131505044e-05
3.558828783e-05
4.019822723e-05
4.516796604e-05
5.052210316e-05
5.628683493e-05
6.249005482e-05
6.916146332e-05
7.633268079e-05
8.403737013e-05
9.231136484e-05
0.0001011928075
0.0001107222946
0.0001209430331
0.0001319010039
0.0001436451372
0.0001562274989
0.0001697034884
0.0001841320491
0.0001995758908
0.000216101726
0.0002337805245
0.0002526877804
2.735682958e-05
3.131505042e-05
3.558828767e-05
4.019822706e-05
4.516796618e-05
5.05221034e-05
5.62868349e-05
6.249005477e-05
6.916146323e-05
7.633268063e-05
8.403737015e-05
9.23113647e-05
0.0001011928072
0.0001107222949
0.0001209430333
0.0001319010038
0.000143645137
0.0001562274988
0.0001697034887
0.0001841320492
0.0001995758907
0.0002161017257
0.0002337805248
0.0002526877804
2.735682965e-05
3.131505036e-05
3.558828779e-05
4.019822726e-05
4.516796613e-05
5.052210339e-05
5.628683486e-05
6.249005462e-05
6.916146305e-05
7.633268071e-05
8.403737009e-05
9.231136492e-05
0.0001011928074
0.0001107222949
0.0001209430332
0.0001319010038
0.000143645137
0.0001562274989
0.0001697034886
0.0001841320492
0.0001995758907
0.0002161017257
0.0002337805246
0.0002526877808
2.735682966e-05
3.131505031e-05
3.558828776e-05
4.019822725e-05
4.516796622e-05
5.052210327e-05
5.628683488e-05
6.249005485e-05
6.91614633e-05
7.633268099e-05
8.403737016e-05
9.231136476e-05
0.0001011928075
0.0001107222948
0.0001209430332
0.0001319010038
0.000143645137
0.0001562274987
0.0001697034885
0.0001841320491
0.0001995758906
0.0002161017259
0.0002337805247
0.0002526877808
2.735682965e-05
3.131505032e-05
3.558828774e-05
4.019822729e-05
4.516796609e-05
5.052210325e-05
5.628683494e-05
6.249005462e-05
6.916146319e-05
7.633268072e-05
8.403736998e-05
9.23113649e-05
0.0001011928075
0.0001107222948
0.0001209430332
0.0001319010037
0.000143645137
0.000156227499
0.0001697034887
0.0001841320491
0.0001995758904
0.0002161017256
0.0002337805246
0.0002526877805
2.735682969e-05
3.131505037e-05
3.558828768e-05
4.019822723e-05
4.516796617e-05
5.052210339e-05
5.628683501e-05
6.249005463e-05
6.91614632e-05
7.633268088e-05
8.403736999e-05
9.231136475e-05
0.0001011928073
0.0001107222947
0.0001209430332
0.0001319010038
0.0001436451368
0.0001562274986
0.0001697034887
0.0001841320494
0.0001995758906
0.0002161017257
0.0002337805246
0.0002526877808
2.735682966e-05
3.131505038e-05
3.558828767e-05
4.019822728e-05
4.516796616e-05
5.052210333e-05
5.62868349e-05
6.249005467e-05
6.916146324e-05
7.633268085e-05
8.403737002e-05
9.231136481e-05
0.0001011928074
0.0001107222947
0.0001209430334
0.0001319010037
0.0001436451371
0.0001562274988
0.0001697034887
0.0001841320492
0.0001995758904
0.0002161017258
0.0002337805248
0.0002526877802
2.735682965e-05
3.131505031e-05
3.558828771e-05
4.019822729e-05
4.516796617e-05
5.052210333e-05
5.628683487e-05
6.249005469e-05
6.916146317e-05
7.633268091e-05
8.403736995e-05
9.231136476e-05
0.0001011928075
0.0001107222947
0.0001209430331
0.0001319010038
0.000143645137
0.0001562274988
0.0001697034886
0.0001841320494
0.0001995758907
0.0002161017257
0.0002337805249
0.0002526877805
2.735682969e-05
3.131505028e-05
3.558828776e-05
4.019822725e-05
4.516796624e-05
5.052210332e-05
5.628683481e-05
6.249005478e-05
6.916146311e-05
7.633268095e-05
8.403736991e-05
9.231136488e-05
0.0001011928074
0.0001107222948
0.000120943033
0.000131901004
0.0001436451369
0.0001562274989
0.0001697034886
0.0001841320491
0.0001995758907
0.0002161017258
0.0002337805247
0.0002526877804
2.735682969e-05
3.131505028e-05
3.558828776e-05
4.019822725e-05
4.516796624e-05
5.052210332e-05
5.628683481e-05
6.249005478e-05
6.916146311e-05
7.633268095e-05
8.403736991e-05
9.231136488e-05
0.0001011928074
0.0001107222948
0.000120943033
0.000131901004
0.0001436451369
0.0001562274989
0.0001697034886
0.0001841320491
0.0001995758907
0.0002161017258
0.0002337805247
0.0002526877804
2.735682965e-05
3.131505031e-05
3.558828771e-05
4.019822729e-05
4.516796617e-05
5.052210333e-05
5.628683487e-05
6.249005469e-05
6.916146317e-05
7.633268091e-05
8.403736995e-05
9.231136476e-05
0.0001011928075
0.0001107222947
0.0001209430331
0.0001319010038
0.000143645137
0.0001562274988
0.0001697034886
0.0001841320494
0.0001995758907
0.0002161017257
0.0002337805249
0.0002526877805
2.735682966e-05
3.131505038e-05
3.558828767e-05
4.019822728e-05
4.516796616e-05
5.052210333e-05
5.62868349e-05
6.249005467e-05
6.916146324e-05
7.633268085e-05
8.403737002e-05
9.231136481e-05
0.0001011928074
0.0001107222947
0.0001209430334
0.0001319010037
0.0001436451371
0.0001562274988
0.0001697034887
0.0001841320492
0.0001995758904
0.0002161017258
0.0002337805248
0.0002526877802
2.735682969e-05
3.131505037e-05
3.558828768e-05
4.019822723e-05
4.516796617e-05
5.052210339e-05
5.628683501e-05
6.249005463e-05
6.91614632e-05
7.633268088e-05
8.403736999e-05
9.231136475e-05
0.0001011928073
0.0001107222947
0.0001209430332
0.0001319010038
0.0001436451368
0.0001562274986
0.0001697034887
0.0001841320494
0.0001995758906
0.0002161017257
0.0002337805246
0.0002526877808
2.735682965e-05
3.131505032e-05
3.558828774e-05
4.019822729e-05
4.516796609e-05
5.052210325e-05
5.628683494e-05
6.249005462e-05
6.916146319e-05
7.633268072e-05
8.403736998e-05
9.23113649e-05
0.0001011928075
0.0001107222948
0.0001209430332
0.0001319010037
0.000143645137
0.000156227499
0.0001697034887
0.0001841320491
0.0001995758904
0.0002161017256
0.0002337805246
0.0002526877805
2.735682966e-05
3.131505031e-05
3.558828776e-05
4.019822725e-05
4.516796622e-05
5.052210327e-05
5.628683488e-05
6.249005485e-05
6.91614633e-05
7.633268099e-05
8.403737016e-05
9.231136476e-05
0.0001011928075
0.0001107222948
0.0001209430332
0.0001319010038
0.000143645137
0.0001562274987
0.0001697034885
0.0001841320491
0.0001995758906
0.0002161017259
0.0002337805247
0.0002526877808
2.735682965e-05
3.131505036e-05
3.558828779e-05
4.019822726e-05
4.516796613e-05
5.052210339e-05
5.628683486e-05
6.249005462e-05
6.916146305e-05
7.633268071e-05
8.403737009e-05
9.231136492e-05
0.0001011928074
0.0001107222949
0.0001209430332
0.0001319010038
0.000143645137
0.0001562274989
0.0001697034886
0.0001841320492
0.0001995758907
0.0002161017257
0.0002337805246
0.0002526877808
2.735682958e-05
3.131505042e-05
3.558828767e-05
4.019822706e-05
4.516796618e-05
5.05221034e-05
5.62868349e-05
6.249005477e-05
6.916146323e-05
7.633268063e-05
8.403737015e-05
9.23113647e-05
0.0001011928072
0.0001107222949
0.0001209430333
0.0001319010038
0.000143645137
0.0001562274988
0.0001697034887
0.0001841320492
0.0001995758907
0.0002161017257
0.0002337805248
0.0002526877804
2.735682963e-05
3.131505044e-05
3.558828783e-05
4.019822723e-05
4.516796604e-05
5.052210316e-05
5.628683493e-05
6.249005482e-05
6.916146332e-05
7.633268079e-05
8.403737013e-05
9.231136484e-05
0.0001011928075
0.0001107222946
0.0001209430331
0.0001319010039
0.0001436451372
0.0001562274989
0.0001697034884
0.0001841320491
0.0001995758908
0.000216101726
0.0002337805245
0.0002526877804
2.735682968e-05
3.131505038e-05
3.558828768e-05
4.019822735e-05
4.51679662e-05
5.052210334e-05
5.62868348e-05
6.249005459e-05
6.91614633e-05
7.633268088e-05
8.403736992e-05
9.231136486e-05
0.0001011928073
0.0001107222947
0.0001209430332
0.0001319010038
0.0001436451367
0.0001562274987
0.0001697034889
0.0001841320495
0.0001995758904
0.0002161017256
0.0002337805244
0.0002526877804
2.735682957e-05
3.131505032e-05
3.558828767e-05
4.019822729e-05
4.516796609e-05
5.052210346e-05
5.628683484e-05
6.249005476e-05
6.916146329e-05
7.633268066e-05
8.403737006e-05
9.231136486e-05
0.0001011928075
0.0001107222949
0.0001209430332
0.0001319010039
0.0001436451367
0.0001562274991
0.0001697034886
0.0001841320493
0.0001995758905
0.0002161017259
0.0002337805248
0.0002526877808
2.735682977e-05
3.131505047e-05
3.558828783e-05
4.019822721e-05
4.516796629e-05
5.052210337e-05
5.628683488e-05
6.249005464e-05
6.91614631e-05
7.633268071e-05
8.403737017e-05
9.231136485e-05
0.0001011928075
0.0001107222947
0.0001209430331
0.0001319010039
0.000143645137
0.000156227499
0.0001697034882
0.000184132049
0.0001995758903
0.0002161017259
0.0002337805246
0.0002526877809
2.735682962e-05
3.131505026e-05
3.558828764e-05
4.019822714e-05
4.516796604e-05
5.05221033e-05
5.628683507e-05
6.249005471e-05
6.91614632e-05
7.633268099e-05
8.403737006e-05
9.231136494e-05
0.0001011928072
0.0001107222948
0.0001209430333
0.0001319010039
0.000143645137
0.0001562274988
0.0001697034884
0.0001841320497
0.0001995758905
0.0002161017257
0.0002337805249
0.0002526877809
2.735682963e-05
3.131505036e-05
3.558828776e-05
4.019822737e-05
4.51679661e-05
5.052210333e-05
5.628683484e-05
6.249005469e-05
6.916146322e-05
7.633268088e-05
8.403736987e-05
9.231136477e-05
0.0001011928075
0.0001107222948
0.0001209430332
0.0001319010039
0.0001436451368
0.0001562274989
0.0001697034886
0.000184132049
0.0001995758904
0.0002161017258
0.0002337805249
0.0002526877806
2.735682963e-05
3.131505036e-05
3.558828776e-05
4.019822737e-05
4.51679661e-05
5.052210333e-05
5.628683484e-05
6.249005469e-05
6.916146322e-05
7.633268088e-05
8.403736987e-05
9.231136477e-05
0.0001011928075
0.0001107222948
0.0001209430332
0.0001319010039
0.0001436451368
0.0001562274989
0.0001697034886
0.000184132049
0.0001995758904
0.0002161017258
0.0002337805249
0.0002526877806
2.735682962e-05
3.131505026e-05
3.558828764e-05
4.019822714e-05
4.516796604e-05
5.05221033e-05
5.628683507e-05
6.249005471e-05
6.91614632e-05
7.633268099e-05
8.403737006e-05
9.231136494e-05
0.0001011928072
0.0001107222948
0.0001209430333
0.0001319010039
0.000143645137
0.0001562274988
0.0001697034884
0.0001841320497
0.0001995758905
0.0002161017257
0.0002337805249
0.0002526877809
2.735682977e-05
3.131505047e-05
3.558828783e-05
4.019822721e-05
4.516796629e-05
5.052210337e-05
5.628683488e-05
6.249005464e-05
6.91614631e-05
7.633268071e-05
8.403737017e-05
9.231136485e-05
0.0001011928075
0.0001107222947
0.0001209430331
0.0001319010039
0.000143645137
0.000156227499
0.0001697034882
0.000184132049
0.0001995758903
0.0002161017259
0.0002337805246
0.0002526877809
2.735682957e-05
3.131505032e-05
3.558828767e-05
4.019822729e-05
4.516796609e-05
5.052210346e-05
5.628683484e-05
6.249005476e-05
6.916146329e-05
7.633268066e-05
8.403737006e-05
9.231136486e-05
0.0001011928075
0.0001107222949
0.0001209430332
0.0001319010039
0.0001436451367
0.0001562274991
0.0001697034886
0.0001841320493
0.0001995758905
0.0002161017259
0.0002337805248
0.0002526877808
2.735682968e-05
3.131505038e-05
3.558828768e-05
4.019822735e-05
4.51679662e-05
5.052210334e-05
5.62868348e-05
6.249005459e-05
6.91614633e-05
7.633268088e-05
8.403736992e-05
9.231136486e-05
0.0001011928073
0.0001107222947
0.0001209430332
0.0001319010038
0.0001436451367
0.0001562274987
0.0001697034889
0.0001841320495
0.0001995758904
0.0002161017256
0.0002337805244
0.0002526877804
2.735682963e-05
3.131505044e-05
3.558828783e-05
4.019822723e-05
4.516796604e-05
5.052210316e-05
5.628683493e-05
6.249005482e-05
6.916146332e-05
7.633268079e-05
8.403737013e-05
9.231136484e-05
0.0001011928075
0.0001107222946
0.0001209430331
0.0001319010039
0.0001436451372
0.0001562274989
0.0001697034884
0.0001841320491
0.0001995758908
0.000216101726
0.0002337805245
0.0002526877804
2.735682958e-05
3.131505042e-05
3.558828767e-05
4.019822706e-05
4.516796618e-05
5.05221034e-05