/*--------------------------------*- C++ -*----------------------------------*\
| =========                 |                                                 |
| \      /  F ield         | OpenFOAM: The Open Source CFD Toolbox           |
|  \    /   O peration     | Version:  1.5                                   |
|   \  /    A nd           | Web:      http://www.OpenFOAM.org               |
|    \/     M anipulation  |                                                 |
\*---------------------------------------------------------------------------*/

FoamFile
{
    version     2.0;
    format      ascii;
    class       polyBoundaryMesh;
    location    "constant/polyMesh";
    object      boundary;
}

// * * * * * * * * * * * * * * * * * * * * * * * * * * * * * * * * * * * * * //

3
(
    insideCircle
    {
        type                 patch;
        nFaces               24;
        startFace            4444;
    }
    outsideCircle
    {
        type                 patch;
        nFaces               124;
        startFace            4468;
    }
    topAndBottom
    {
        type                 empty;
        nFaces               6024;
        startFace            4592;
    }
)

// ************************************************************************* //


