/*--------------------------------*- C++ -*----------------------------------*\
| =========                 |                                                 |
| \\      /  F ield         | foam-extend: Open Source CFD                    |
|  \\    /   O peration     | Version:  3.0                                   |
|   \\  /    A nd           | Web:         http://www.extend-project.de       |
|    \\/     M anipulation  |                                                 |
\*---------------------------------------------------------------------------*/
FoamFile
{
    version     2.0;
    format      ascii;
    class       volVectorField;
    location    "constant/polyMesh";
    object      Centers;
}
// * * * * * * * * * * * * * * * * * * * * * * * * * * * * * * * * * * * * * //

dimensions      [0 0 0 0 0 0 0];

internalField   nonuniform List<vector> 
7680
(
(0.206946 0.00338645 0.05)
(0.220913 0.00361501 0.05)
(0.235131 0.00384767 0.05)
(0.249604 0.0040845 0.05)
(0.264337 0.00432559 0.05)
(0.279334 0.004571 0.05)
(0.2946 0.00482081 0.05)
(0.31014 0.00507511 0.05)
(0.325959 0.00533397 0.05)
(0.342062 0.00559748 0.05)
(0.358454 0.00586571 0.05)
(0.37514 0.00613875 0.05)
(0.392125 0.0064167 0.05)
(0.409414 0.00669962 0.05)
(0.427014 0.00698762 0.05)
(0.444929 0.00728079 0.05)
(0.463166 0.00757921 0.05)
(0.48173 0.00788299 0.05)
(0.500627 0.00819222 0.05)
(0.519862 0.00850699 0.05)
(0.539443 0.0088274 0.05)
(0.559375 0.00915357 0.05)
(0.579664 0.00948558 0.05)
(0.600317 0.00982355 0.05)
(0.621341 0.0101676 0.05)
(0.642741 0.0105178 0.05)
(0.664526 0.0108742 0.05)
(0.686701 0.0112371 0.05)
(0.709273 0.0116065 0.05)
(0.732251 0.0119825 0.05)
(0.75564 0.0123652 0.05)
(0.779449 0.0127548 0.05)
(0.803685 0.0131514 0.05)
(0.828356 0.0135551 0.05)
(0.853469 0.0139661 0.05)
(0.879032 0.0143844 0.05)
(0.905054 0.0148102 0.05)
(0.931542 0.0152437 0.05)
(0.958505 0.0156849 0.05)
(0.985952 0.016134 0.05)
(0.206725 0.0101557 0.05)
(0.220677 0.0108411 0.05)
(0.234879 0.0115389 0.05)
(0.249337 0.0122491 0.05)
(0.264054 0.0129721 0.05)
(0.279035 0.0137081 0.05)
(0.294285 0.0144573 0.05)
(0.309808 0.0152199 0.05)
(0.32561 0.0159962 0.05)
(0.341696 0.0167864 0.05)
(0.35807 0.0175909 0.05)
(0.374738 0.0184097 0.05)
(0.391705 0.0192432 0.05)
(0.408976 0.0200917 0.05)
(0.426557 0.0209554 0.05)
(0.444453 0.0218346 0.05)
(0.46267 0.0227295 0.05)
(0.481214 0.0236405 0.05)
(0.500091 0.0245679 0.05)
(0.519306 0.0255119 0.05)
(0.538865 0.0264728 0.05)
(0.558776 0.0274509 0.05)
(0.579043 0.0284466 0.05)
(0.599674 0.0294601 0.05)
(0.620675 0.0304918 0.05)
(0.642053 0.031542 0.05)
(0.663814 0.0326111 0.05)
(0.685965 0.0336993 0.05)
(0.708514 0.0348071 0.05)
(0.731467 0.0359347 0.05)
(0.754831 0.0370825 0.05)
(0.778615 0.0382509 0.05)
(0.802825 0.0394402 0.05)
(0.827469 0.0406509 0.05)
(0.852555 0.0418833 0.05)
(0.878091 0.0431378 0.05)
(0.904084 0.0444148 0.05)
(0.930544 0.0457147 0.05)
(0.957479 0.0470379 0.05)
(0.984896 0.0483848 0.05)
(0.206282 0.0169141 0.05)
(0.220204 0.0180557 0.05)
(0.234376 0.0192177 0.05)
(0.248802 0.0204006 0.05)
(0.263488 0.0216048 0.05)
(0.278437 0.0228305 0.05)
(0.293654 0.0240783 0.05)
(0.309144 0.0253484 0.05)
(0.324913 0.0266413 0.05)
(0.340964 0.0279574 0.05)
(0.357303 0.0292972 0.05)
(0.373935 0.0306609 0.05)
(0.390865 0.0320491 0.05)
(0.408099 0.0334622 0.05)
(0.425643 0.0349007 0.05)
(0.443501 0.036365 0.05)
(0.461679 0.0378555 0.05)
(0.480183 0.0393728 0.05)
(0.499019 0.0409172 0.05)
(0.518193 0.0424894 0.05)
(0.537711 0.0440898 0.05)
(0.557579 0.0457188 0.05)
(0.577803 0.0473771 0.05)
(0.598389 0.0490651 0.05)
(0.619345 0.0507834 0.05)
(0.640677 0.0525325 0.05)
(0.662392 0.054313 0.05)
(0.684495 0.0561254 0.05)
(0.706996 0.0579703 0.05)
(0.729899 0.0598483 0.05)
(0.753214 0.06176 0.05)
(0.776946 0.063706 0.05)
(0.801104 0.0656868 0.05)
(0.825696 0.0677032 0.05)
(0.850728 0.0697557 0.05)
(0.876209 0.071845 0.05)
(0.902147 0.0739718 0.05)
(0.92855 0.0761368 0.05)
(0.955427 0.0783406 0.05)
(0.982786 0.0805838 0.05)
(0.205618 0.0236544 0.05)
(0.219495 0.0252509 0.05)
(0.233622 0.026876 0.05)
(0.248002 0.0285303 0.05)
(0.26264 0.0302143 0.05)
(0.277541 0.0319285 0.05)
(0.292709 0.0336735 0.05)
(0.30815 0.0354498 0.05)
(0.323867 0.0372579 0.05)
(0.339866 0.0390985 0.05)
(0.356153 0.0409721 0.05)
(0.372731 0.0428793 0.05)
(0.389607 0.0448207 0.05)
(0.406786 0.046797 0.05)
(0.424273 0.0488087 0.05)
(0.442073 0.0508564 0.05)
(0.460193 0.0529409 0.05)
(0.478638 0.0550628 0.05)
(0.497413 0.0572228 0.05)
(0.516525 0.0594215 0.05)
(0.53598 0.0616596 0.05)
(0.555784 0.0639378 0.05)
(0.575943 0.0662569 0.05)
(0.596464 0.0686176 0.05)
(0.617352 0.0710207 0.05)
(0.638615 0.0734668 0.05)
(0.66026 0.0759568 0.05)
(0.682293 0.0784914 0.05)
(0.70472 0.0810715 0.05)
(0.72755 0.0836979 0.05)
(0.75079 0.0863714 0.05)
(0.774446 0.0890928 0.05)
(0.798526 0.091863 0.05)
(0.823038 0.0946829 0.05)
(0.84799 0.0975534 0.05)
(0.873389 0.100475 0.05)
(0.899244 0.10345 0.05)
(0.925562 0.106477 0.05)
(0.952352 0.109559 0.05)
(0.979623 0.112697 0.05)
(0.204734 0.0303694 0.05)
(0.218551 0.032419 0.05)
(0.232617 0.0345055 0.05)
(0.246935 0.0366294 0.05)
(0.261511 0.0387915 0.05)
(0.276348 0.0409923 0.05)
(0.291451 0.0432326 0.05)
(0.306825 0.0455131 0.05)
(0.322475 0.0478346 0.05)
(0.338405 0.0501977 0.05)
(0.354622 0.0526031 0.05)
(0.371129 0.0550518 0.05)
(0.387932 0.0575443 0.05)
(0.405037 0.0600816 0.05)
(0.422449 0.0626643 0.05)
(0.440173 0.0652934 0.05)
(0.458214 0.0679697 0.05)
(0.47658 0.0706939 0.05)
(0.495275 0.073467 0.05)
(0.514305 0.0762899 0.05)
(0.533676 0.0791633 0.05)
(0.553395 0.0820883 0.05)
(0.573467 0.0850658 0.05)
(0.593899 0.0880966 0.05)
(0.614698 0.0911818 0.05)
(0.63587 0.0943224 0.05)
(0.657421 0.0975192 0.05)
(0.679359 0.100773 0.05)
(0.70169 0.104086 0.05)
(0.724422 0.107458 0.05)
(0.747562 0.11089 0.05)
(0.771116 0.114384 0.05)
(0.795093 0.117941 0.05)
(0.8195 0.121561 0.05)
(0.844344 0.125247 0.05)
(0.869634 0.128998 0.05)
(0.895378 0.132817 0.05)
(0.921583 0.136704 0.05)
(0.948258 0.140661 0.05)
(0.975411 0.144689 0.05)
(0.20363 0.0370518 0.05)
(0.217374 0.0395525 0.05)
(0.231364 0.0420981 0.05)
(0.245605 0.0446893 0.05)
(0.260101 0.0473271 0.05)
(0.274858 0.0500122 0.05)
(0.28988 0.0527455 0.05)
(0.305171 0.0555278 0.05)
(0.320737 0.05836 0.05)
(0.336582 0.0612431 0.05)
(0.352711 0.0641779 0.05)
(0.369129 0.0671653 0.05)
(0.385842 0.0702063 0.05)
(0.402854 0.0733019 0.05)
(0.420172 0.0764529 0.05)
(0.437801 0.0796605 0.05)
(0.455745 0.0829256 0.05)
(0.474012 0.0862493 0.05)
(0.492606 0.0896326 0.05)
(0.511533 0.0930766 0.05)
(0.5308 0.0965823 0.05)
(0.550412 0.100151 0.05)
(0.570377 0.103784 0.05)
(0.590699 0.107481 0.05)
(0.611386 0.111245 0.05)
(0.632443 0.115077 0.05)
(0.653878 0.118977 0.05)
(0.675698 0.122947 0.05)
(0.697909 0.126989 0.05)
(0.720518 0.131103 0.05)
(0.743533 0.13529 0.05)
(0.766961 0.139553 0.05)
(0.790808 0.143892 0.05)
(0.815083 0.148309 0.05)
(0.839794 0.152806 0.05)
(0.864948 0.157383 0.05)
(0.890552 0.162042 0.05)
(0.916616 0.166784 0.05)
(0.943148 0.171612 0.05)
(0.970155 0.176526 0.05)
(0.202309 0.0436946 0.05)
(0.215963 0.0466436 0.05)
(0.229862 0.0496455 0.05)
(0.244011 0.0527013 0.05)
(0.258414 0.055812 0.05)
(0.273075 0.0589785 0.05)
(0.287999 0.0622018 0.05)
(0.303191 0.065483 0.05)
(0.318656 0.068823 0.05)
(0.334398 0.0722229 0.05)
(0.350422 0.0756839 0.05)
(0.366734 0.0792069 0.05)
(0.383338 0.0827931 0.05)
(0.40024 0.0864436 0.05)
(0.417446 0.0901596 0.05)
(0.43496 0.0939423 0.05)
(0.452788 0.0977928 0.05)
(0.470936 0.101712 0.05)
(0.489409 0.105702 0.05)
(0.508214 0.109764 0.05)
(0.527356 0.113898 0.05)
(0.546841 0.118106 0.05)
(0.566676 0.12239 0.05)
(0.586866 0.126751 0.05)
(0.607418 0.13119 0.05)
(0.628339 0.135708 0.05)
(0.649636 0.140308 0.05)
(0.671314 0.14499 0.05)
(0.693381 0.149756 0.05)
(0.715843 0.154607 0.05)
(0.738709 0.159546 0.05)
(0.761984 0.164573 0.05)
(0.785677 0.16969 0.05)
(0.809795 0.174899 0.05)
(0.834345 0.180201 0.05)
(0.859335 0.185599 0.05)
(0.884774 0.191093 0.05)
(0.910669 0.196686 0.05)
(0.937028 0.202379 0.05)
(0.96386 0.208174 0.05)
(0.200771 0.0502906 0.05)
(0.214321 0.0536847 0.05)
(0.228115 0.0571398 0.05)
(0.242156 0.0606569 0.05)
(0.256449 0.0642372 0.05)
(0.270999 0.0678817 0.05)
(0.28581 0.0715916 0.05)
(0.300886 0.0753681 0.05)
(0.316233 0.0792123 0.05)
(0.331855 0.0831255 0.05)
(0.347758 0.0871088 0.05)
(0.363946 0.0911637 0.05)
(0.380424 0.0952912 0.05)
(0.397198 0.0994928 0.05)
(0.414272 0.10377 0.05)
(0.431653 0.108123 0.05)
(0.449346 0.112555 0.05)
(0.467356 0.117067 0.05)
(0.485689 0.121659 0.05)
(0.50435 0.126333 0.05)
(0.523347 0.131092 0.05)
(0.542684 0.135935 0.05)
(0.562368 0.140866 0.05)
(0.582404 0.145885 0.05)
(0.602801 0.150994 0.05)
(0.623563 0.156194 0.05)
(0.644697 0.161488 0.05)
(0.66621 0.166877 0.05)
(0.688109 0.172362 0.05)
(0.710401 0.177946 0.05)
(0.733093 0.18363 0.05)
(0.756191 0.189416 0.05)
(0.779704 0.195306 0.05)
(0.803638 0.201301 0.05)
(0.828002 0.207404 0.05)
(0.852803 0.213616 0.05)
(0.878048 0.21994 0.05)
(0.903746 0.226377 0.05)
(0.929904 0.232929 0.05)
(0.956532 0.239599 0.05)
(0.199018 0.0568327 0.05)
(0.21245 0.0606684 0.05)
(0.226123 0.0645729 0.05)
(0.240042 0.0685476 0.05)
(0.25421 0.0725936 0.05)
(0.268633 0.0767122 0.05)
(0.283314 0.0809047 0.05)
(0.298259 0.0851724 0.05)
(0.313472 0.0895167 0.05)
(0.328958 0.093939 0.05)
(0.344722 0.0984405 0.05)
(0.360768 0.103023 0.05)
(0.377102 0.107687 0.05)
(0.39373 0.112436 0.05)
(0.410655 0.117269 0.05)
(0.427884 0.122189 0.05)
(0.445422 0.127197 0.05)
(0.463275 0.132295 0.05)
(0.481448 0.137485 0.05)
(0.499947 0.142767 0.05)
(0.518777 0.148145 0.05)
(0.537946 0.153619 0.05)
(0.557458 0.15919 0.05)
(0.577319 0.164862 0.05)
(0.597538 0.170636 0.05)
(0.618118 0.176513 0.05)
(0.639068 0.182496 0.05)
(0.660394 0.188585 0.05)
(0.682101 0.194784 0.05)
(0.704199 0.201095 0.05)
(0.726692 0.207518 0.05)
(0.749589 0.214057 0.05)
(0.772896 0.220712 0.05)
(0.796622 0.227487 0.05)
(0.820773 0.234384 0.05)
(0.845357 0.241404 0.05)
(0.870381 0.248551 0.05)
(0.895855 0.255825 0.05)
(0.921785 0.26323 0.05)
(0.948181 0.270767 0.05)
(0.197052 0.063314 0.05)
(0.210351 0.0675871 0.05)
(0.223889 0.0719369 0.05)
(0.23767 0.0763648 0.05)
(0.251699 0.0808722 0.05)
(0.265979 0.0854605 0.05)
(0.280515 0.0901312 0.05)
(0.295313 0.0948856 0.05)
(0.310375 0.0997253 0.05)
(0.325708 0.104652 0.05)
(0.341316 0.109667 0.05)
(0.357204 0.114772 0.05)
(0.373377 0.119968 0.05)
(0.38984 0.125258 0.05)
(0.406598 0.130642 0.05)
(0.423657 0.136123 0.05)
(0.441022 0.141703 0.05)
(0.458699 0.147382 0.05)
(0.476692 0.153164 0.05)
(0.495008 0.159049 0.05)
(0.513652 0.165039 0.05)
(0.532631 0.171137 0.05)
(0.55195 0.177345 0.05)
(0.571616 0.183663 0.05)
(0.591635 0.190095 0.05)
(0.612012 0.196643 0.05)
(0.632755 0.203308 0.05)
(0.65387 0.210092 0.05)
(0.675363 0.216998 0.05)
(0.697242 0.224028 0.05)
(0.719513 0.231184 0.05)
(0.742184 0.238468 0.05)
(0.765261 0.245883 0.05)
(0.788752 0.25343 0.05)
(0.812664 0.261114 0.05)
(0.837005 0.268934 0.05)
(0.861783 0.276896 0.05)
(0.887005 0.285 0.05)
(0.912679 0.293249 0.05)
(0.938814 0.301646 0.05)
(0.194875 0.0697274 0.05)
(0.208027 0.0744334 0.05)
(0.221416 0.0792239 0.05)
(0.235045 0.0841003 0.05)
(0.248918 0.0890643 0.05)
(0.26304 0.0941174 0.05)
(0.277416 0.0992611 0.05)
(0.29205 0.104497 0.05)
(0.306946 0.109827 0.05)
(0.32211 0.115253 0.05)
(0.337545 0.120776 0.05)
(0.353258 0.126398 0.05)
(0.369252 0.13212 0.05)
(0.385533 0.137946 0.05)
(0.402106 0.143876 0.05)
(0.418977 0.149912 0.05)
(0.43615 0.156057 0.05)
(0.453631 0.162312 0.05)
(0.471425 0.168679 0.05)
(0.489539 0.17516 0.05)
(0.507977 0.181757 0.05)
(0.526747 0.188473 0.05)
(0.545852 0.195309 0.05)
(0.565301 0.202268 0.05)
(0.585098 0.209351 0.05)
(0.60525 0.216562 0.05)
(0.625764 0.223902 0.05)
(0.646645 0.231373 0.05)
(0.667901 0.238979 0.05)
(0.689539 0.246721 0.05)
(0.711564 0.254602 0.05)
(0.733984 0.262624 0.05)
(0.756806 0.27079 0.05)
(0.780038 0.279102 0.05)
(0.803686 0.287563 0.05)
(0.827758 0.296177 0.05)
(0.852262 0.304944 0.05)
(0.877205 0.313869 0.05)
(0.902596 0.322954 0.05)
(0.928442 0.332202 0.05)
(0.192489 0.0760662 0.05)
(0.205481 0.0812 0.05)
(0.218705 0.086426 0.05)
(0.232167 0.0917457 0.05)
(0.245871 0.097161 0.05)
(0.25982 0.102673 0.05)
(0.27402 0.108285 0.05)
(0.288475 0.113997 0.05)
(0.303188 0.119811 0.05)
(0.318166 0.12573 0.05)
(0.333413 0.131755 0.05)
(0.348933 0.137888 0.05)
(0.364731 0.144131 0.05)
(0.380813 0.150486 0.05)
(0.397183 0.156955 0.05)
(0.413847 0.163541 0.05)
(0.43081 0.170244 0.05)
(0.448077 0.177067 0.05)
(0.465654 0.184013 0.05)
(0.483546 0.191083 0.05)
(0.501759 0.19828 0.05)
(0.520298 0.205607 0.05)
(0.53917 0.213064 0.05)
(0.55838 0.220656 0.05)
(0.577935 0.228383 0.05)
(0.597841 0.236249 0.05)
(0.618103 0.244256 0.05)
(0.638729 0.252407 0.05)
(0.659725 0.260704 0.05)
(0.681097 0.26915 0.05)
(0.702853 0.277747 0.05)
(0.724998 0.286498 0.05)
(0.747541 0.295407 0.05)
(0.770488 0.304475 0.05)
(0.793847 0.313705 0.05)
(0.817624 0.323101 0.05)
(0.841828 0.332666 0.05)
(0.866466 0.342402 0.05)
(0.891546 0.352313 0.05)
(0.917075 0.362402 0.05)
(0.189897 0.0823236 0.05)
(0.202714 0.0878797 0.05)
(0.21576 0.0935355 0.05)
(0.229041 0.0992929 0.05)
(0.24256 0.105154 0.05)
(0.256322 0.11112 0.05)
(0.27033 0.117192 0.05)
(0.28459 0.123374 0.05)
(0.299106 0.129667 0.05)
(0.313882 0.136073 0.05)
(0.328923 0.142594 0.05)
(0.344235 0.149231 0.05)
(0.35982 0.155988 0.05)
(0.375686 0.162866 0.05)
(0.391835 0.169867 0.05)
(0.408275 0.176994 0.05)
(0.425009 0.184248 0.05)
(0.442044 0.191633 0.05)
(0.459384 0.19915 0.05)
(0.477035 0.206802 0.05)
(0.495002 0.214591 0.05)
(0.513292 0.22252 0.05)
(0.53191 0.230591 0.05)
(0.550862 0.238807 0.05)
(0.570153 0.24717 0.05)
(0.589791 0.255684 0.05)
(0.60978 0.264349 0.05)
(0.630128 0.273171 0.05)
(0.650841 0.28215 0.05)
(0.671926 0.291291 0.05)
(0.693389 0.300595 0.05)
(0.715236 0.310066 0.05)
(0.737475 0.319707 0.05)
(0.760113 0.329521 0.05)
(0.783158 0.339511 0.05)
(0.806615 0.34968 0.05)
(0.830493 0.360032 0.05)
(0.854799 0.370569 0.05)
(0.879541 0.381295 0.05)
(0.904727 0.392213 0.05)
(0.187102 0.0884928 0.05)
(0.19973 0.0944652 0.05)
(0.212584 0.100545 0.05)
(0.22567 0.106734 0.05)
(0.23899 0.113034 0.05)
(0.252549 0.119447 0.05)
(0.266351 0.125975 0.05)
(0.280401 0.13262 0.05)
(0.294703 0.139384 0.05)
(0.309262 0.14627 0.05)
(0.324082 0.153279 0.05)
(0.339168 0.160414 0.05)
(0.354524 0.167677 0.05)
(0.370156 0.175071 0.05)
(0.386068 0.182596 0.05)
(0.402265 0.190257 0.05)
(0.418753 0.198056 0.05)
(0.435537 0.205994 0.05)
(0.452622 0.214074 0.05)
(0.470013 0.2223 0.05)
(0.487716 0.230673 0.05)
(0.505737 0.239196 0.05)
(0.52408 0.247872 0.05)
(0.542753 0.256703 0.05)
(0.561761 0.265693 0.05)
(0.581109 0.274844 0.05)
(0.600805 0.284159 0.05)
(0.620853 0.293642 0.05)
(0.641261 0.303294 0.05)
(0.662035 0.313119 0.05)
(0.683182 0.323121 0.05)
(0.704708 0.333302 0.05)
(0.72662 0.343666 0.05)
(0.748925 0.354215 0.05)
(0.77163 0.364954 0.05)
(0.794742 0.375885 0.05)
(0.818268 0.387012 0.05)
(0.842217 0.398339 0.05)
(0.866594 0.409869 0.05)
(0.891409 0.421605 0.05)
(0.184107 0.0945672 0.05)
(0.196532 0.10095 0.05)
(0.209181 0.107447 0.05)
(0.222057 0.11406 0.05)
(0.235163 0.120793 0.05)
(0.248505 0.127646 0.05)
(0.262087 0.134622 0.05)
(0.275912 0.141723 0.05)
(0.289985 0.148952 0.05)
(0.304311 0.15631 0.05)
(0.318893 0.163801 0.05)
(0.333737 0.171426 0.05)
(0.348848 0.179187 0.05)
(0.364229 0.187088 0.05)
(0.379887 0.19513 0.05)
(0.395825 0.203317 0.05)
(0.412049 0.211651 0.05)
(0.428564 0.220134 0.05)
(0.445375 0.228769 0.05)
(0.462488 0.237559 0.05)
(0.479908 0.246507 0.05)
(0.49764 0.255615 0.05)
(0.51569 0.264886 0.05)
(0.534063 0.274324 0.05)
(0.552767 0.283931 0.05)
(0.571805 0.29371 0.05)
(0.591185 0.303665 0.05)
(0.610913 0.313798 0.05)
(0.630994 0.324113 0.05)
(0.651436 0.334613 0.05)
(0.672244 0.345301 0.05)
(0.693425 0.356181 0.05)
(0.714987 0.367256 0.05)
(0.736934 0.37853 0.05)
(0.759276 0.390005 0.05)
(0.782018 0.401687 0.05)
(0.805167 0.413578 0.05)
(0.828732 0.425682 0.05)
(0.85272 0.438003 0.05)
(0.877138 0.450546 0.05)
(0.180914 0.10054 0.05)
(0.193124 0.107326 0.05)
(0.205553 0.114233 0.05)
(0.218206 0.121265 0.05)
(0.231085 0.128422 0.05)
(0.244196 0.135708 0.05)
(0.257542 0.143125 0.05)
(0.271127 0.150675 0.05)
(0.284956 0.15836 0.05)
(0.299033 0.166184 0.05)
(0.313363 0.174147 0.05)
(0.32795 0.182253 0.05)
(0.342798 0.190505 0.05)
(0.357913 0.198905 0.05)
(0.373299 0.207456 0.05)
(0.388961 0.216159 0.05)
(0.404903 0.225019 0.05)
(0.421132 0.234038 0.05)
(0.437652 0.243219 0.05)
(0.454468 0.252564 0.05)
(0.471585 0.262077 0.05)
(0.48901 0.27176 0.05)
(0.506747 0.281617 0.05)
(0.524802 0.291651 0.05)
(0.543181 0.301865 0.05)
(0.561889 0.312262 0.05)
(0.580933 0.322845 0.05)
(0.600319 0.333619 0.05)
(0.620052 0.344585 0.05)
(0.640139 0.355748 0.05)
(0.660586 0.367112 0.05)
(0.6814 0.378679 0.05)
(0.702587 0.390453 0.05)
(0.724155 0.402439 0.05)
(0.746109 0.414639 0.05)
(0.768456 0.427059 0.05)
(0.791204 0.439701 0.05)
(0.814361 0.45257 0.05)
(0.837932 0.465669 0.05)
(0.861926 0.479003 0.05)
(0.177527 0.106406 0.05)
(0.189509 0.113587 0.05)
(0.201706 0.120898 0.05)
(0.214121 0.128339 0.05)
(0.22676 0.135914 0.05)
(0.239625 0.143626 0.05)
(0.252721 0.151475 0.05)
(0.266052 0.159465 0.05)
(0.279622 0.167599 0.05)
(0.293436 0.175879 0.05)
(0.307497 0.184307 0.05)
(0.321811 0.192886 0.05)
(0.336381 0.201619 0.05)
(0.351213 0.210509 0.05)
(0.366311 0.219558 0.05)
(0.38168 0.22877 0.05)
(0.397324 0.238147 0.05)
(0.413249 0.247692 0.05)
(0.429459 0.257408 0.05)
(0.445961 0.267298 0.05)
(0.462758 0.277366 0.05)
(0.479856 0.287615 0.05)
(0.497261 0.298047 0.05)
(0.514978 0.308666 0.05)
(0.533013 0.319476 0.05)
(0.551371 0.330479 0.05)
(0.570059 0.34168 0.05)
(0.589082 0.353082 0.05)
(0.608445 0.364688 0.05)
(0.628157 0.376503 0.05)
(0.648221 0.388529 0.05)
(0.668645 0.400771 0.05)
(0.689436 0.413232 0.05)
(0.710599 0.425917 0.05)
(0.732142 0.438829 0.05)
(0.754072 0.451973 0.05)
(0.776394 0.465353 0.05)
(0.799117 0.478972 0.05)
(0.822247 0.492836 0.05)
(0.845792 0.506948 0.05)
(0.173951 0.112157 0.05)
(0.185691 0.119727 0.05)
(0.197642 0.127433 0.05)
(0.209807 0.135276 0.05)
(0.222191 0.143261 0.05)
(0.234797 0.151389 0.05)
(0.247629 0.159663 0.05)
(0.260692 0.168085 0.05)
(0.273989 0.176658 0.05)
(0.287524 0.185385 0.05)
(0.301302 0.194269 0.05)
(0.315328 0.203312 0.05)
(0.329605 0.212517 0.05)
(0.344138 0.221888 0.05)
(0.358931 0.231426 0.05)
(0.37399 0.241136 0.05)
(0.389319 0.251019 0.05)
(0.404923 0.26108 0.05)
(0.420807 0.271322 0.05)
(0.436976 0.281747 0.05)
(0.453435 0.292359 0.05)
(0.470189 0.303161 0.05)
(0.487243 0.314157 0.05)
(0.504603 0.32535 0.05)
(0.522275 0.336744 0.05)
(0.540263 0.348343 0.05)
(0.558574 0.360149 0.05)
(0.577214 0.372167 0.05)
(0.596187 0.384401 0.05)
(0.615501 0.396854 0.05)
(0.635162 0.40953 0.05)
(0.655175 0.422434 0.05)
(0.675546 0.435569 0.05)
(0.696283 0.448939 0.05)
(0.717392 0.462549 0.05)
(0.73888 0.476404 0.05)
(0.760753 0.490507 0.05)
(0.783018 0.504862 0.05)
(0.805682 0.519475 0.05)
(0.828753 0.534351 0.05)
(0.170188 0.117789 0.05)
(0.181674 0.125739 0.05)
(0.193367 0.133831 0.05)
(0.205269 0.142069 0.05)
(0.217385 0.150454 0.05)
(0.229718 0.15899 0.05)
(0.242273 0.167679 0.05)
(0.255053 0.176525 0.05)
(0.268062 0.185528 0.05)
(0.281305 0.194694 0.05)
(0.294785 0.204023 0.05)
(0.308507 0.213521 0.05)
(0.322475 0.223188 0.05)
(0.336693 0.233029 0.05)
(0.351167 0.243046 0.05)
(0.3659 0.253243 0.05)
(0.380898 0.263623 0.05)
(0.396164 0.274189 0.05)
(0.411705 0.284945 0.05)
(0.427524 0.295893 0.05)
(0.443626 0.307038 0.05)
(0.460018 0.318383 0.05)
(0.476703 0.329931 0.05)
(0.493688 0.341686 0.05)
(0.510977 0.353652 0.05)
(0.528577 0.365833 0.05)
(0.546491 0.378232 0.05)
(0.564728 0.390854 0.05)
(0.583291 0.403702 0.05)
(0.602187 0.41678 0.05)
(0.621422 0.430093 0.05)
(0.641002 0.443644 0.05)
(0.660933 0.457439 0.05)
(0.681222 0.47148 0.05)
(0.701874 0.485774 0.05)
(0.722897 0.500324 0.05)
(0.744296 0.515135 0.05)
(0.76608 0.530212 0.05)
(0.788254 0.545558 0.05)
(0.810826 0.561181 0.05)
(0.166243 0.123294 0.05)
(0.177463 0.131615 0.05)
(0.188884 0.140086 0.05)
(0.200511 0.148709 0.05)
(0.212346 0.157486 0.05)
(0.224393 0.166421 0.05)
(0.236657 0.175517 0.05)
(0.24914 0.184775 0.05)
(0.261848 0.1942 0.05)
(0.274784 0.203793 0.05)
(0.287951 0.213559 0.05)
(0.301355 0.2235 0.05)
(0.315 0.23362 0.05)
(0.328889 0.24392 0.05)
(0.343027 0.254406 0.05)
(0.357418 0.26508 0.05)
(0.372068 0.275945 0.05)
(0.386981 0.287005 0.05)
(0.402161 0.298263 0.05)
(0.417613 0.309723 0.05)
(0.433343 0.321389 0.05)
(0.449354 0.333264 0.05)
(0.465653 0.345352 0.05)
(0.482244 0.357656 0.05)
(0.499132 0.370182 0.05)
(0.516324 0.382932 0.05)
(0.533823 0.39591 0.05)
(0.551637 0.409122 0.05)
(0.56977 0.42257 0.05)
(0.588228 0.43626 0.05)
(0.607017 0.450195 0.05)
(0.626143 0.46438 0.05)
(0.645612 0.478819 0.05)
(0.665431 0.493517 0.05)
(0.685604 0.508479 0.05)
(0.70614 0.523709 0.05)
(0.727043 0.539212 0.05)
(0.748322 0.554993 0.05)
(0.769982 0.571057 0.05)
(0.79203 0.58741 0.05)
(0.16212 0.128668 0.05)
(0.173062 0.137351 0.05)
(0.1842 0.146191 0.05)
(0.195538 0.15519 0.05)
(0.207079 0.16435 0.05)
(0.218828 0.173674 0.05)
(0.230787 0.183166 0.05)
(0.242961 0.192828 0.05)
(0.255354 0.202663 0.05)
(0.267969 0.212675 0.05)
(0.28081 0.222866 0.05)
(0.293881 0.233241 0.05)
(0.307187 0.243801 0.05)
(0.320732 0.254551 0.05)
(0.334519 0.265493 0.05)
(0.348554 0.276632 0.05)
(0.36284 0.287971 0.05)
(0.377383 0.299513 0.05)
(0.392187 0.311262 0.05)
(0.407256 0.323221 0.05)
(0.422595 0.335395 0.05)
(0.43821 0.347788 0.05)
(0.454104 0.360403 0.05)
(0.470284 0.373244 0.05)
(0.486753 0.386315 0.05)
(0.503518 0.39962 0.05)
(0.520584 0.413165 0.05)
(0.537956 0.426952 0.05)
(0.555639 0.440986 0.05)
(0.573639 0.455272 0.05)
(0.591962 0.469815 0.05)
(0.610614 0.484618 0.05)
(0.6296 0.499686 0.05)
(0.648927 0.515025 0.05)
(0.6686 0.530639 0.05)
(0.688626 0.546533 0.05)
(0.709011 0.562711 0.05)
(0.729762 0.57918 0.05)
(0.750885 0.595945 0.05)
(0.772387 0.61301 0.05)
(0.157823 0.133903 0.05)
(0.168475 0.14294 0.05)
(0.179318 0.15214 0.05)
(0.190355 0.161504 0.05)
(0.201591 0.171037 0.05)
(0.213028 0.180741 0.05)
(0.224671 0.190619 0.05)
(0.236522 0.200674 0.05)
(0.248586 0.21091 0.05)
(0.260867 0.221329 0.05)
(0.273367 0.231935 0.05)
(0.286092 0.242731 0.05)
(0.299046 0.253721 0.05)
(0.312231 0.264908 0.05)
(0.325653 0.276296 0.05)
(0.339316 0.287888 0.05)
(0.353224 0.299688 0.05)
(0.367381 0.3117 0.05)
(0.381793 0.323927 0.05)
(0.396462 0.336373 0.05)
(0.411395 0.349043 0.05)
(0.426596 0.361939 0.05)
(0.442069 0.375067 0.05)
(0.45782 0.388431 0.05)
(0.473853 0.402034 0.05)
(0.490173 0.415881 0.05)
(0.506787 0.429977 0.05)
(0.523698 0.444325 0.05)
(0.540913 0.45893 0.05)
(0.558436 0.473798 0.05)
(0.576273 0.488932 0.05)
(0.594431 0.504337 0.05)
(0.612914 0.520019 0.05)
(0.631728 0.535982 0.05)
(0.65088 0.552231 0.05)
(0.670375 0.568771 0.05)
(0.69022 0.585608 0.05)
(0.710421 0.602747 0.05)
(0.730984 0.620194 0.05)
(0.751916 0.637953 0.05)
(0.153358 0.138995 0.05)
(0.163708 0.148376 0.05)
(0.174244 0.157925 0.05)
(0.184969 0.167646 0.05)
(0.195887 0.177541 0.05)
(0.207001 0.187614 0.05)
(0.218314 0.197868 0.05)
(0.22983 0.208305 0.05)
(0.241552 0.21893 0.05)
(0.253485 0.229746 0.05)
(0.265632 0.240755 0.05)
(0.277997 0.251962 0.05)
(0.290584 0.26337 0.05)
(0.303397 0.274983 0.05)
(0.316439 0.286803 0.05)
(0.329715 0.298836 0.05)
(0.343229 0.311085 0.05)
(0.356986 0.323553 0.05)
(0.37099 0.336245 0.05)
(0.385244 0.349165 0.05)
(0.399754 0.362316 0.05)
(0.414525 0.375704 0.05)
(0.42956 0.389331 0.05)
(0.444865 0.403202 0.05)
(0.460445 0.417323 0.05)
(0.476304 0.431696 0.05)
(0.492447 0.446328 0.05)
(0.50888 0.461222 0.05)
(0.525607 0.476383 0.05)
(0.542635 0.491815 0.05)
(0.559967 0.507525 0.05)
(0.577611 0.523516 0.05)
(0.595571 0.539794 0.05)
(0.613853 0.556364 0.05)
(0.632463 0.573231 0.05)
(0.651407 0.590401 0.05)
(0.67069 0.607878 0.05)
(0.690319 0.625669 0.05)
(0.710301 0.643779 0.05)
(0.73064 0.662214 0.05)
(0.148728 0.143939 0.05)
(0.158765 0.153653 0.05)
(0.168983 0.163542 0.05)
(0.179385 0.173609 0.05)
(0.189973 0.183856 0.05)
(0.200751 0.194287 0.05)
(0.211723 0.204905 0.05)
(0.222891 0.215714 0.05)
(0.23426 0.226716 0.05)
(0.245833 0.237916 0.05)
(0.257613 0.249317 0.05)
(0.269604 0.260923 0.05)
(0.281811 0.272737 0.05)
(0.294237 0.284762 0.05)
(0.306885 0.297003 0.05)
(0.319761 0.309464 0.05)
(0.332867 0.322149 0.05)
(0.346209 0.33506 0.05)
(0.359789 0.348204 0.05)
(0.373614 0.361583 0.05)
(0.387686 0.375202 0.05)
(0.40201 0.389065 0.05)
(0.416592 0.403177 0.05)
(0.431435 0.417542 0.05)
(0.446544 0.432165 0.05)
(0.461924 0.44705 0.05)
(0.47758 0.462201 0.05)
(0.493517 0.477625 0.05)
(0.509739 0.493325 0.05)
(0.526252 0.509307 0.05)
(0.543062 0.525575 0.05)
(0.560173 0.542135 0.05)
(0.577591 0.558992 0.05)
(0.595321 0.576151 0.05)
(0.613369 0.593618 0.05)
(0.631741 0.611398 0.05)
(0.650442 0.629497 0.05)
(0.669478 0.647921 0.05)
(0.688856 0.666675 0.05)
(0.708582 0.685765 0.05)
(0.143939 0.148728 0.05)
(0.153653 0.158765 0.05)
(0.163542 0.168983 0.05)
(0.173609 0.179385 0.05)
(0.183856 0.189973 0.05)
(0.194287 0.200751 0.05)
(0.204905 0.211723 0.05)
(0.215714 0.222891 0.05)
(0.226716 0.23426 0.05)
(0.237916 0.245833 0.05)
(0.249317 0.257613 0.05)
(0.260923 0.269604 0.05)
(0.272737 0.281811 0.05)
(0.284762 0.294237 0.05)
(0.297003 0.306885 0.05)
(0.309464 0.319761 0.05)
(0.322149 0.332867 0.05)
(0.33506 0.346209 0.05)
(0.348204 0.359789 0.05)
(0.361583 0.373614 0.05)
(0.375202 0.387686 0.05)
(0.389065 0.40201 0.05)
(0.403177 0.416592 0.05)
(0.417542 0.431435 0.05)
(0.432165 0.446544 0.05)
(0.44705 0.461924 0.05)
(0.462201 0.47758 0.05)
(0.477625 0.493517 0.05)
(0.493325 0.509739 0.05)
(0.509307 0.526252 0.05)
(0.525575 0.543062 0.05)
(0.542135 0.560173 0.05)
(0.558992 0.577591 0.05)
(0.576151 0.595321 0.05)
(0.593618 0.613369 0.05)
(0.611398 0.631741 0.05)
(0.629497 0.650442 0.05)
(0.647921 0.669478 0.05)
(0.666675 0.688856 0.05)
(0.685765 0.708582 0.05)
(0.138995 0.153358 0.05)
(0.148376 0.163708 0.05)
(0.157925 0.174244 0.05)
(0.167646 0.184969 0.05)
(0.177541 0.195887 0.05)
(0.187614 0.207001 0.05)
(0.197868 0.218314 0.05)
(0.208305 0.22983 0.05)
(0.21893 0.241552 0.05)
(0.229746 0.253485 0.05)
(0.240755 0.265632 0.05)
(0.251962 0.277997 0.05)
(0.26337 0.290584 0.05)
(0.274983 0.303397 0.05)
(0.286803 0.316439 0.05)
(0.298836 0.329715 0.05)
(0.311085 0.343229 0.05)
(0.323553 0.356986 0.05)
(0.336245 0.37099 0.05)
(0.349165 0.385244 0.05)
(0.362316 0.399754 0.05)
(0.375704 0.414525 0.05)
(0.389331 0.42956 0.05)
(0.403202 0.444865 0.05)
(0.417323 0.460445 0.05)
(0.431696 0.476304 0.05)
(0.446328 0.492447 0.05)
(0.461222 0.50888 0.05)
(0.476383 0.525607 0.05)
(0.491815 0.542635 0.05)
(0.507525 0.559967 0.05)
(0.523516 0.577611 0.05)
(0.539794 0.595571 0.05)
(0.556364 0.613853 0.05)
(0.573231 0.632463 0.05)
(0.590401 0.651407 0.05)
(0.607878 0.67069 0.05)
(0.625669 0.690319 0.05)
(0.643779 0.710301 0.05)
(0.662214 0.73064 0.05)
(0.133903 0.157823 0.05)
(0.14294 0.168475 0.05)
(0.15214 0.179318 0.05)
(0.161504 0.190355 0.05)
(0.171037 0.201591 0.05)
(0.180741 0.213028 0.05)
(0.190619 0.224671 0.05)
(0.200674 0.236522 0.05)
(0.21091 0.248586 0.05)
(0.221329 0.260867 0.05)
(0.231935 0.273367 0.05)
(0.242731 0.286092 0.05)
(0.253721 0.299046 0.05)
(0.264908 0.312231 0.05)
(0.276296 0.325653 0.05)
(0.287888 0.339316 0.05)
(0.299688 0.353224 0.05)
(0.3117 0.367381 0.05)
(0.323927 0.381793 0.05)
(0.336373 0.396462 0.05)
(0.349043 0.411395 0.05)
(0.361939 0.426596 0.05)
(0.375067 0.442069 0.05)
(0.388431 0.45782 0.05)
(0.402034 0.473853 0.05)
(0.415881 0.490173 0.05)
(0.429977 0.506787 0.05)
(0.444325 0.523698 0.05)
(0.45893 0.540913 0.05)
(0.473798 0.558436 0.05)
(0.488932 0.576273 0.05)
(0.504337 0.594431 0.05)
(0.520019 0.612914 0.05)
(0.535982 0.631728 0.05)
(0.552231 0.65088 0.05)
(0.568771 0.670375 0.05)
(0.585608 0.69022 0.05)
(0.602747 0.710421 0.05)
(0.620194 0.730984 0.05)
(0.637953 0.751916 0.05)
(0.128668 0.16212 0.05)
(0.137351 0.173062 0.05)
(0.146191 0.1842 0.05)
(0.15519 0.195538 0.05)
(0.16435 0.207079 0.05)
(0.173674 0.218828 0.05)
(0.183166 0.230787 0.05)
(0.192828 0.242961 0.05)
(0.202663 0.255354 0.05)
(0.212675 0.267969 0.05)
(0.222866 0.28081 0.05)
(0.233241 0.293881 0.05)
(0.243801 0.307187 0.05)
(0.254551 0.320732 0.05)
(0.265493 0.334519 0.05)
(0.276632 0.348554 0.05)
(0.287971 0.36284 0.05)
(0.299513 0.377383 0.05)
(0.311262 0.392187 0.05)
(0.323221 0.407256 0.05)
(0.335395 0.422595 0.05)
(0.347788 0.43821 0.05)
(0.360403 0.454104 0.05)
(0.373244 0.470284 0.05)
(0.386315 0.486753 0.05)
(0.39962 0.503518 0.05)
(0.413165 0.520584 0.05)
(0.426952 0.537956 0.05)
(0.440986 0.555639 0.05)
(0.455272 0.573639 0.05)
(0.469815 0.591962 0.05)
(0.484618 0.610614 0.05)
(0.499686 0.6296 0.05)
(0.515025 0.648927 0.05)
(0.530639 0.6686 0.05)
(0.546533 0.688626 0.05)
(0.562711 0.709011 0.05)
(0.57918 0.729762 0.05)
(0.595945 0.750885 0.05)
(0.61301 0.772387 0.05)
(0.123294 0.166243 0.05)
(0.131615 0.177463 0.05)
(0.140086 0.188884 0.05)
(0.148709 0.200511 0.05)
(0.157486 0.212346 0.05)
(0.166421 0.224393 0.05)
(0.175517 0.236657 0.05)
(0.184775 0.24914 0.05)
(0.1942 0.261848 0.05)
(0.203793 0.274784 0.05)
(0.213559 0.287951 0.05)
(0.2235 0.301355 0.05)
(0.23362 0.315 0.05)
(0.24392 0.328889 0.05)
(0.254406 0.343027 0.05)
(0.26508 0.357418 0.05)
(0.275945 0.372068 0.05)
(0.287005 0.386981 0.05)
(0.298263 0.402161 0.05)
(0.309723 0.417613 0.05)
(0.321389 0.433343 0.05)
(0.333264 0.449354 0.05)
(0.345352 0.465653 0.05)
(0.357656 0.482244 0.05)
(0.370182 0.499132 0.05)
(0.382932 0.516324 0.05)
(0.39591 0.533823 0.05)
(0.409122 0.551637 0.05)
(0.42257 0.56977 0.05)
(0.43626 0.588228 0.05)
(0.450195 0.607017 0.05)
(0.46438 0.626143 0.05)
(0.478819 0.645612 0.05)
(0.493517 0.665431 0.05)
(0.508479 0.685604 0.05)
(0.523709 0.70614 0.05)
(0.539212 0.727043 0.05)
(0.554993 0.748322 0.05)
(0.571057 0.769982 0.05)
(0.58741 0.79203 0.05)
(0.117789 0.170188 0.05)
(0.125739 0.181674 0.05)
(0.133831 0.193367 0.05)