/*--------------------------------*- C++ -*----------------------------------*\
| =========                 |                                                 |
| \\      /  F ield         | OpenFOAM: The Open Source CFD Toolbox           |
|  \\    /   O peration     | Version:  1.7.1                                 |
|   \\  /    A nd           | Web:      www.OpenFOAM.com                      |
|    \\/     M anipulation  |                                                 |
\*---------------------------------------------------------------------------*/
FoamFile
{
    version     2.0;
    format      ascii;
    class       volSymmTensorField;
    object      sigma;
}
// * * * * * * * * * * * * * * * * * * * * * * * * * * * * * * * * * * * * * //

dimensions      [0 0 0 0 0 0 0];

internalField   uniform (0 0 0 0 0 0);

boundaryField
{
    in
    {
            //type        mySigma;
            //type        fixedValue;
            type        zeroGradient;
            ThetaWall   0;
            value       uniform (0 0 0 0 0 0);
    }
    out
    {
            //type        mySigma;
            //type        fixedValue;
            type        zeroGradient;
            ThetaWall   0;
            value       uniform (0 0 0 0 0 0);
    }
    frontAndBack
    {
       type            empty;
    }
}

// ************************************************************************* //
