/*--------------------------------*- C++ -*----------------------------------*\
| =========                 |                                                 |
| \\      /  F ield         | foam-extend: Open Source CFD                    |
|  \\    /   O peration     | Version:  3.0                                   |
|   \\  /    A nd           | Web:         http://www.extend-project.de       |
|    \\/     M anipulation  |                                                 |
\*---------------------------------------------------------------------------*/
FoamFile
{
    version     2.0;
    format      ascii;
    class       volVectorField;
    location    "constant/polyMesh";
    object      Centers;
}
// * * * * * * * * * * * * * * * * * * * * * * * * * * * * * * * * * * * * * //

dimensions      [0 0 0 0 0 0 0];

internalField   nonuniform List<vector> 
672
(
(0.2231102224 0.01252960133 0.05)
(0.2704502306 0.01518815917 0.05)
(0.3208910944 0.01802085732 0.05)
(0.3746273951 0.02103862323 0.05)
(0.431869199 0.024253254 0.05)
(0.492841773 0.0276774003 0.05)
(0.5577859327 0.03132458608 0.05)
(0.6269587104 0.03520924595 0.05)
(0.700634213 0.03934677343 0.05)
(0.7791046155 0.0437535767 0.05)
(0.8626812622 0.04844714051 0.05)
(0.9516958652 0.05344609338 0.05)
(0.2203044819 0.03743123699 0.05)
(0.267049162 0.0453734776 0.05)
(0.3168557027 0.05383594922 0.05)
(0.3699162383 0.06285129682 0.05)
(0.4264381932 0.07245476322 0.05)
(0.4866440017 0.08268414154 0.05)
(0.550771451 0.09357983341 0.05)
(0.6190743408 0.1051849611 0.05)
(0.6918233312 0.1175455118 0.05)
(0.7693069229 0.1307105035 0.05)
(0.8518325448 0.1447321706 0.05)
(0.9397277375 0.1596661645 0.05)
(0.2147282847 0.06186215313 0.05)
(0.2602897953 0.07498819821 0.05)
(0.3088356667 0.08897402282 0.05)
(0.3605531701 0.1038735789 0.05)
(0.4156444798 0.1197451118 0.05)
(0.4743263998 0.1366510817 0.05)
(0.5368306987 0.15465826 0.05)
(0.6034047522 0.1738379144 0.05)
(0.6743123697 0.1942660471 0.05)
(0.7498347494 0.2160236699 0.05)
(0.8302715389 0.2391971097 0.05)
(0.9159419883 0.263878341 0.05)
(0.2064517548 0.08551511678 0.05)
(0.2502571334 0.1036598987 0.05)
(0.296931843 0.1229931965 0.05)
(0.3466559365 0.1435895904 0.05)
(0.3996237958 0.1655295961 0.05)
(0.4560438682 0.1888995552 0.05)
(0.5161389889 0.2137917693 0.05)
(0.5801469988 0.2403047551 0.05)
(0.6483215389 0.2685435742 0.05)
(0.7209329689 0.2986202133 0.05)
(0.7982693866 0.3306540064 0.05)
(0.8806377371 0.3647720943 0.05)
(0.1955789742 0.1080926783 0.05)
(0.2370773428 0.1310280159 0.05)
(0.281293929 0.1554656593 0.05)
(0.3283993035 0.1814998795 0.05)
(0.3785776108 0.2092324497 0.05)
(0.4320263203 0.2387725073 0.05)
(0.4889565318 0.270236723 0.05)
(0.5495935602 0.303749624 0.05)
(0.6141776885 0.33944401 0.05)
(0.682965038 0.3774614342 0.05)
(0.7562285337 0.417952737 0.05)
(0.8342589554 0.4610786267 0.05)
(0.1822466746 0.1293109116 0.05)
(0.2209161671 0.1567483797 0.05)
(0.2621185808 0.1859830512 0.05)
(0.3060128587 0.2171277024 0.05)
(0.3527705926 0.2503040838 0.05)
(0.4025757908 0.2856427565 0.05)
(0.4556251627 0.3232832931 0.05)
(0.5121286638 0.3633746652 0.05)
(0.5723101974 0.4060757405 0.05)
(0.6364084254 0.4515558587 0.05)
(0.7046776682 0.4999954696 0.05)
(0.7773888833 0.551586828 0.05)
(0.1666225172 0.1489029851 0.05)
(0.2019768424 0.1804975417 0.05)
(0.2396469393 0.2141615984 0.05)
(0.2797781247 0.2500250184 0.05)
(0.3225272796 0.2882279988 0.05)
(0.3680626371 0.3289208823 0.05)
(0.4165640427 0.3722643883 0.05)
(0.4682234522 0.4184300591 0.05)
(0.5232455735 0.4676008328 0.05)
(0.5818486077 0.5199717061 0.05)
(0.6442650721 0.5757504689 0.05)
(0.710742695 0.6351585049 0.05)
(0.1489029851 0.1666225172 0.05)
(0.1804975417 0.2019768424 0.05)
(0.2141615984 0.2396469393 0.05)
(0.2500250184 0.2797781247 0.05)
(0.2882279988 0.3225272796 0.05)
(0.3289208823 0.3680626371 0.05)
(0.3722643883 0.4165640427 0.05)
(0.4184300591 0.4682234522 0.05)
(0.4676008328 0.5232455735 0.05)
(0.5199717061 0.5818486077 0.05)
(0.5757504689 0.6442650721 0.05)
(0.6351585049 0.710742695 0.05)
(0.1293109116 0.1822466746 0.05)
(0.1567483797 0.2209161671 0.05)
(0.1859830512 0.2621185808 0.05)
(0.2171277024 0.3060128587 0.05)
(0.2503040838 0.3527705926 0.05)
(0.2856427565 0.4025757908 0.05)
(0.3232832931 0.4556251627 0.05)
(0.3633746652 0.5121286638 0.05)
(0.4060757405 0.5723101974 0.05)
(0.4515558587 0.6364084254 0.05)
(0.4999954696 0.7046776682 0.05)
(0.551586828 0.7773888833 0.05)
(0.1080926783 0.1955789742 0.05)
(0.1310280159 0.2370773428 0.05)
(0.1554656593 0.281293929 0.05)
(0.1814998795 0.3283993035 0.05)
(0.2092324497 0.3785776108 0.05)
(0.2387725073 0.4320263203 0.05)
(0.270236723 0.4889565318 0.05)
(0.303749624 0.5495935602 0.05)
(0.33944401 0.6141776885 0.05)
(0.3774614342 0.682965038 0.05)
(0.417952737 0.7562285337 0.05)
(0.4610786267 0.8342589554 0.05)
(0.08551511678 0.2064517548 0.05)
(0.1036598987 0.2502571334 0.05)
(0.1229931965 0.296931843 0.05)
(0.1435895904 0.3466559365 0.05)
(0.1655295961 0.3996237958 0.05)
(0.1888995552 0.4560438682 0.05)
(0.2137917693 0.5161389889 0.05)
(0.2403047551 0.5801469988 0.05)
(0.2685435742 0.6483215389 0.05)
(0.2986202133 0.7209329689 0.05)
(0.3306540064 0.7982693866 0.05)
(0.3647720943 0.8806377371 0.05)
(0.06186215313 0.2147282847 0.05)
(0.07498819821 0.2602897953 0.05)
(0.08897402282 0.3088356667 0.05)
(0.1038735789 0.3605531701 0.05)
(0.1197451118 0.4156444798 0.05)
(0.1366510817 0.4743263998 0.05)
(0.15465826 0.5368306987 0.05)
(0.1738379144 0.6034047522 0.05)
(0.1942660471 0.6743123697 0.05)
(0.2160236699 0.7498347494 0.05)
(0.2391971097 0.8302715389 0.05)
(0.263878341 0.9159419883 0.05)
(0.03743123699 0.2203044819 0.05)
(0.0453734776 0.267049162 0.05)
(0.05383594922 0.3168557027 0.05)
(0.06285129682 0.3699162383 0.05)
(0.07245476322 0.4264381932 0.05)
(0.08268414154 0.4866440017 0.05)
(0.09357983341 0.550771451 0.05)
(0.1051849611 0.6190743408 0.05)
(0.1175455118 0.6918233312 0.05)
(0.1307105035 0.7693069229 0.05)
(0.1447321706 0.8518325448 0.05)
(0.1596661645 0.9397277375 0.05)
(0.01252960133 0.2231102224 0.05)
(0.01518815917 0.2704502306 0.05)
(0.01802085732 0.3208910944 0.05)
(0.02103862323 0.3746273951 0.05)
(0.024253254 0.431869199 0.05)
(0.0276774003 0.492841773 0.05)
(0.03132458608 0.5577859327 0.05)
(0.03520924595 0.6269587104 0.05)
(0.03934677343 0.700634213 0.05)
(0.0437535767 0.7791046155 0.05)
(0.04844714051 0.8626812622 0.05)
(0.05344609338 0.9516958652 0.05)
(-0.01252960133 0.2231102224 0.05)
(-0.01518815917 0.2704502306 0.05)
(-0.01802085732 0.3208910944 0.05)
(-0.02103862323 0.3746273951 0.05)
(-0.024253254 0.431869199 0.05)
(-0.0276774003 0.492841773 0.05)
(-0.03132458608 0.5577859327 0.05)
(-0.03520924595 0.6269587104 0.05)
(-0.03934677343 0.700634213 0.05)
(-0.0437535767 0.7791046155 0.05)
(-0.04844714051 0.8626812622 0.05)
(-0.05344609338 0.9516958652 0.05)
(-0.03743123699 0.2203044819 0.05)
(-0.0453734776 0.267049162 0.05)
(-0.05383594922 0.3168557027 0.05)
(-0.06285129682 0.3699162383 0.05)
(-0.07245476322 0.4264381932 0.05)
(-0.08268414154 0.4866440017 0.05)
(-0.09357983341 0.550771451 0.05)
(-0.1051849611 0.6190743408 0.05)
(-0.1175455118 0.6918233312 0.05)
(-0.1307105035 0.7693069229 0.05)
(-0.1447321706 0.8518325448 0.05)
(-0.1596661645 0.9397277375 0.05)
(-0.06186215313 0.2147282847 0.05)
(-0.07498819821 0.2602897953 0.05)
(-0.08897402282 0.3088356667 0.05)
(-0.1038735789 0.3605531701 0.05)
(-0.1197451118 0.4156444798 0.05)
(-0.1366510817 0.4743263998 0.05)
(-0.15465826 0.5368306987 0.05)
(-0.1738379144 0.6034047522 0.05)
(-0.1942660471 0.6743123697 0.05)
(-0.2160236699 0.7498347494 0.05)
(-0.2391971097 0.8302715389 0.05)
(-0.263878341 0.9159419883 0.05)
(-0.08551511678 0.2064517548 0.05)
(-0.1036598987 0.2502571334 0.05)
(-0.1229931965 0.296931843 0.05)
(-0.1435895904 0.3466559365 0.05)
(-0.1655295961 0.3996237958 0.05)
(-0.1888995552 0.4560438682 0.05)
(-0.2137917693 0.5161389889 0.05)
(-0.2403047551 0.5801469988 0.05)
(-0.2685435742 0.6483215389 0.05)
(-0.2986202133 0.7209329689 0.05)
(-0.3306540064 0.7982693866 0.05)
(-0.3647720943 0.8806377371 0.05)
(-0.1080926783 0.1955789742 0.05)
(-0.1310280159 0.2370773428 0.05)
(-0.1554656593 0.281293929 0.05)
(-0.1814998795 0.3283993035 0.05)
(-0.2092324497 0.3785776108 0.05)
(-0.2387725073 0.4320263203 0.05)
(-0.270236723 0.4889565318 0.05)
(-0.303749624 0.5495935602 0.05)
(-0.33944401 0.6141776885 0.05)
(-0.3774614342 0.682965038 0.05)
(-0.417952737 0.7562285337 0.05)
(-0.4610786267 0.8342589554 0.05)
(-0.1293109116 0.1822466746 0.05)
(-0.1567483797 0.2209161671 0.05)
(-0.1859830512 0.2621185808 0.05)
(-0.2171277024 0.3060128587 0.05)
(-0.2503040838 0.3527705926 0.05)
(-0.2856427565 0.4025757908 0.05)
(-0.3232832931 0.4556251627 0.05)
(-0.3633746652 0.5121286638 0.05)
(-0.4060757405 0.5723101974 0.05)
(-0.4515558587 0.6364084254 0.05)
(-0.4999954696 0.7046776682 0.05)
(-0.551586828 0.7773888833 0.05)
(-0.1489029851 0.1666225172 0.05)
(-0.1804975417 0.2019768424 0.05)
(-0.2141615984 0.2396469393 0.05)
(-0.2500250184 0.2797781247 0.05)
(-0.2882279988 0.3225272796 0.05)
(-0.3289208823 0.3680626371 0.05)
(-0.3722643883 0.4165640427 0.05)
(-0.4184300591 0.4682234522 0.05)
(-0.4676008328 0.5232455735 0.05)
(-0.5199717061 0.5818486077 0.05)
(-0.5757504689 0.6442650721 0.05)
(-0.6351585049 0.710742695 0.05)
(-0.1666225172 0.1489029851 0.05)
(-0.2019768424 0.1804975417 0.05)
(-0.2396469393 0.2141615984 0.05)
(-0.2797781247 0.2500250184 0.05)
(-0.3225272796 0.2882279988 0.05)
(-0.3680626371 0.3289208823 0.05)
(-0.4165640427 0.3722643883 0.05)
(-0.4682234522 0.4184300591 0.05)
(-0.5232455735 0.4676008328 0.05)
(-0.5818486077 0.5199717061 0.05)
(-0.6442650721 0.5757504689 0.05)
(-0.710742695 0.6351585049 0.05)
(-0.1822466746 0.1293109116 0.05)
(-0.2209161671 0.1567483797 0.05)
(-0.2621185808 0.1859830512 0.05)
(-0.3060128587 0.2171277024 0.05)
(-0.3527705926 0.2503040838 0.05)
(-0.4025757908 0.2856427565 0.05)
(-0.4556251627 0.3232832931 0.05)
(-0.5121286638 0.3633746652 0.05)
(-0.5723101974 0.4060757405 0.05)
(-0.6364084254 0.4515558587 0.05)
(-0.7046776682 0.4999954696 0.05)
(-0.7773888833 0.551586828 0.05)
(-0.1955789742 0.1080926783 0.05)
(-0.2370773428 0.1310280159 0.05)
(-0.281293929 0.1554656593 0.05)
(-0.3283993035 0.1814998795 0.05)
(-0.3785776108 0.2092324497 0.05)
(-0.4320263203 0.2387725073 0.05)
(-0.4889565318 0.270236723 0.05)
(-0.5495935602 0.303749624 0.05)
(-0.6141776885 0.33944401 0.05)
(-0.682965038 0.3774614342 0.05)
(-0.7562285337 0.417952737 0.05)
(-0.8342589554 0.4610786267 0.05)
(-0.2064517548 0.08551511678 0.05)
(-0.2502571334 0.1036598987 0.05)
(-0.296931843 0.1229931965 0.05)
(-0.3466559365 0.1435895904 0.05)
(-0.3996237958 0.1655295961 0.05)
(-0.4560438682 0.1888995552 0.05)
(-0.5161389889 0.2137917693 0.05)
(-0.5801469988 0.2403047551 0.05)
(-0.6483215389 0.2685435742 0.05)
(-0.7209329689 0.2986202133 0.05)
(-0.7982693866 0.3306540064 0.05)
(-0.8806377371 0.3647720943 0.05)
(-0.2147282847 0.06186215313 0.05)
(-0.2602897953 0.07498819821 0.05)
(-0.3088356667 0.08897402282 0.05)
(-0.3605531701 0.1038735789 0.05)
(-0.4156444798 0.1197451118 0.05)
(-0.4743263998 0.1366510817 0.05)
(-0.5368306987 0.15465826 0.05)
(-0.6034047522 0.1738379144 0.05)
(-0.6743123697 0.1942660471 0.05)
(-0.7498347494 0.2160236699 0.05)
(-0.8302715389 0.2391971097 0.05)
(-0.9159419883 0.263878341 0.05)
(-0.2203044819 0.03743123699 0.05)
(-0.267049162 0.0453734776 0.05)
(-0.3168557027 0.05383594922 0.05)
(-0.3699162383 0.06285129682 0.05)
(-0.4264381932 0.07245476322 0.05)
(-0.4866440017 0.08268414154 0.05)
(-0.550771451 0.09357983341 0.05)
(-0.6190743408 0.1051849611 0.05)
(-0.6918233312 0.1175455118 0.05)
(-0.7693069229 0.1307105035 0.05)
(-0.8518325448 0.1447321706 0.05)
(-0.9397277375 0.1596661645 0.05)
(-0.2231102224 0.01252960133 0.05)
(-0.2704502306 0.01518815917 0.05)
(-0.3208910944 0.01802085732 0.05)
(-0.3746273951 0.02103862323 0.05)
(-0.431869199 0.024253254 0.05)
(-0.492841773 0.0276774003 0.05)
(-0.5577859327 0.03132458608 0.05)
(-0.6269587104 0.03520924595 0.05)
(-0.700634213 0.03934677343 0.05)
(-0.7791046155 0.0437535767 0.05)
(-0.8626812622 0.04844714051 0.05)
(-0.9516958652 0.05344609338 0.05)
(-0.2231102224 -0.01252960133 0.05)
(-0.2704502306 -0.01518815917 0.05)
(-0.3208910944 -0.01802085732 0.05)
(-0.3746273951 -0.02103862323 0.05)
(-0.431869199 -0.024253254 0.05)
(-0.492841773 -0.0276774003 0.05)
(-0.5577859327 -0.03132458608 0.05)
(-0.6269587104 -0.03520924595 0.05)
(-0.700634213 -0.03934677343 0.05)
(-0.7791046155 -0.0437535767 0.05)
(-0.8626812622 -0.04844714051 0.05)
(-0.9516958652 -0.05344609338 0.05)
(-0.2203044819 -0.03743123699 0.05)
(-0.267049162 -0.0453734776 0.05)
(-0.3168557027 -0.05383594922 0.05)
(-0.3699162383 -0.06285129682 0.05)
(-0.4264381932 -0.07245476322 0.05)
(-0.4866440017 -0.08268414154 0.05)
(-0.550771451 -0.09357983341 0.05)
(-0.6190743408 -0.1051849611 0.05)
(-0.6918233312 -0.1175455118 0.05)
(-0.7693069229 -0.1307105035 0.05)
(-0.8518325448 -0.1447321706 0.05)
(-0.9397277375 -0.1596661645 0.05)
(-0.2147282847 -0.06186215313 0.05)
(-0.2602897953 -0.07498819821 0.05)
(-0.3088356667 -0.08897402282 0.05)
(-0.3605531701 -0.1038735789 0.05)
(-0.4156444798 -0.1197451118 0.05)
(-0.4743263998 -0.1366510817 0.05)
(-0.5368306987 -0.15465826 0.05)
(-0.6034047522 -0.1738379144 0.05)
(-0.6743123697 -0.1942660471 0.05)
(-0.7498347494 -0.2160236699 0.05)
(-0.8302715389 -0.2391971097 0.05)
(-0.9159419883 -0.263878341 0.05)
(-0.2064517548 -0.08551511678 0.05)
(-0.2502571334 -0.1036598987 0.05)
(-0.296931843 -0.1229931965 0.05)
(-0.3466559365 -0.1435895904 0.05)
(-0.3996237958 -0.1655295961 0.05)
(-0.4560438682 -0.1888995552 0.05)
(-0.5161389889 -0.2137917693 0.05)
(-0.5801469988 -0.2403047551 0.05)
(-0.6483215389 -0.2685435742 0.05)
(-0.7209329689 -0.2986202133 0.05)
(-0.7982693866 -0.3306540064 0.05)
(-0.8806377371 -0.3647720943 0.05)
(-0.1955789742 -0.1080926783 0.05)
(-0.2370773428 -0.1310280159 0.05)
(-0.281293929 -0.1554656593 0.05)
(-0.3283993035 -0.1814998795 0.05)
(-0.3785776108 -0.2092324497 0.05)
(-0.4320263203 -0.2387725073 0.05)
(-0.4889565318 -0.270236723 0.05)
(-0.5495935602 -0.303749624 0.05)
(-0.6141776885 -0.33944401 0.05)
(-0.682965038 -0.3774614342 0.05)
(-0.7562285337 -0.417952737 0.05)
(-0.8342589554 -0.4610786267 0.05)
(-0.1822466746 -0.1293109116 0.05)
(-0.2209161671 -0.1567483797 0.05)
(-0.2621185808 -0.1859830512 0.05)
(-0.3060128587 -0.2171277024 0.05)
(-0.3527705926 -0.2503040838 0.05)
(-0.4025757908 -0.2856427565 0.05)
(-0.4556251627 -0.3232832931 0.05)
(-0.5121286638 -0.3633746652 0.05)
(-0.5723101974 -0.4060757405 0.05)
(-0.6364084254 -0.4515558587 0.05)
(-0.7046776682 -0.4999954696 0.05)
(-0.7773888833 -0.551586828 0.05)
(-0.1666225172 -0.1489029851 0.05)
(-0.2019768424 -0.1804975417 0.05)
(-0.2396469393 -0.2141615984 0.05)
(-0.2797781247 -0.2500250184 0.05)
(-0.3225272796 -0.2882279988 0.05)
(-0.3680626371 -0.3289208823 0.05)
(-0.4165640427 -0.3722643883 0.05)
(-0.4682234522 -0.4184300591 0.05)
(-0.5232455735 -0.4676008328 0.05)
(-0.5818486077 -0.5199717061 0.05)
(-0.6442650721 -0.5757504689 0.05)
(-0.710742695 -0.6351585049 0.05)
(-0.1489029851 -0.1666225172 0.05)
(-0.1804975417 -0.2019768424 0.05)
(-0.2141615984 -0.2396469393 0.05)
(-0.2500250184 -0.2797781247 0.05)
(-0.2882279988 -0.3225272796 0.05)
(-0.3289208823 -0.3680626371 0.05)
(-0.3722643883 -0.4165640427 0.05)
(-0.4184300591 -0.4682234522 0.05)
(-0.4676008328 -0.5232455735 0.05)
(-0.5199717061 -0.5818486077 0.05)
(-0.5757504689 -0.6442650721 0.05)
(-0.6351585049 -0.710742695 0.05)
(-0.1293109116 -0.1822466746 0.05)
(-0.1567483797 -0.2209161671 0.05)
(-0.1859830512 -0.2621185808 0.05)
(-0.2171277024 -0.3060128587 0.05)
(-0.2503040838 -0.3527705926 0.05)
(-0.2856427565 -0.4025757908 0.05)
(-0.3232832931 -0.4556251627 0.05)
(-0.3633746652 -0.5121286638 0.05)
(-0.4060757405 -0.5723101974 0.05)
(-0.4515558587 -0.6364084254 0.05)
(-0.4999954696 -0.7046776682 0.05)
(-0.551586828 -0.7773888833 0.05)
(-0.1080926783 -0.1955789742 0.05)
(-0.1310280159 -0.2370773428 0.05)
(-0.1554656593 -0.281293929 0.05)
(-0.1814998795 -0.3283993035 0.05)
(-0.2092324497 -0.3785776108 0.05)
(-0.2387725073 -0.4320263203 0.05)
(-0.270236723 -0.4889565318 0.05)
(-0.303749624 -0.5495935602 0.05)
(-0.33944401 -0.6141776885 0.05)
(-0.3774614342 -0.682965038 0.05)
(-0.417952737 -0.7562285337 0.05)
(-0.4610786267 -0.8342589554 0.05)
(-0.08551511678 -0.2064517548 0.05)
(-0.1036598987 -0.2502571334 0.05)
(-0.1229931965 -0.296931843 0.05)
(-0.1435895904 -0.3466559365 0.05)
(-0.1655295961 -0.3996237958 0.05)
(-0.1888995552 -0.4560438682 0.05)
(-0.2137917693 -0.5161389889 0.05)
(-0.2403047551 -0.5801469988 0.05)
(-0.2685435742 -0.6483215389 0.05)
(-0.2986202133 -0.7209329689 0.05)
(-0.3306540064 -0.7982693866 0.05)
(-0.3647720943 -0.8806377371 0.05)
(-0.06186215313 -0.2147282847 0.05)
(-0.07498819821 -0.2602897953 0.05)
(-0.08897402282 -0.3088356667 0.05)
(-0.1038735789 -0.3605531701 0.05)
(-0.1197451118 -0.4156444798 0.05)
(-0.1366510817 -0.4743263998 0.05)
(-0.15465826 -0.5368306987 0.05)
(-0.1738379144 -0.6034047522 0.05)
(-0.1942660471 -0.6743123697 0.05)
(-0.2160236699 -0.7498347494 0.05)
(-0.2391971097 -0.8302715389 0.05)
(-0.263878341 -0.9159419883 0.05)
(-0.03743123699 -0.2203044819 0.05)
(-0.0453734776 -0.267049162 0.05)
(-0.05383594922 -0.3168557027 0.05)
(-0.06285129682 -0.3699162383 0.05)
(-0.07245476322 -0.4264381932 0.05)
(-0.08268414154 -0.4866440017 0.05)
(-0.09357983341 -0.550771451 0.05)
(-0.1051849611 -0.6190743408 0.05)
(-0.1175455118 -0.6918233312 0.05)
(-0.1307105035 -0.7693069229 0.05)
(-0.1447321706 -0.8518325448 0.05)
(-0.1596661645 -0.9397277375 0.05)
(-0.01252960133 -0.2231102224 0.05)
(-0.01518815917 -0.2704502306 0.05)
(-0.01802085732 -0.3208910944 0.05)
(-0.02103862323 -0.3746273951 0.05)
(-0.024253254 -0.431869199 0.05)
(-0.0276774003 -0.492841773 0.05)
(-0.03132458608 -0.5577859327 0.05)
(-0.03520924595 -0.6269587104 0.05)
(-0.03934677343 -0.700634213 0.05)
(-0.0437535767 -0.7791046155 0.05)
(-0.04844714051 -0.8626812622 0.05)
(-0.05344609338 -0.9516958652 0.05)
(0.01252960133 -0.2231102224 0.05)
(0.01518815917 -0.2704502306 0.05)
(0.01802085732 -0.3208910944 0.05)
(0.02103862323 -0.3746273951 0.05)
(0.024253254 -0.431869199 0.05)
(0.0276774003 -0.492841773 0.05)
(0.03132458608 -0.5577859327 0.05)
(0.03520924595 -0.6269587104 0.05)
(0.03934677343 -0.700634213 0.05)
(0.0437535767 -0.7791046155 0.05)
(0.04844714051 -0.8626812622 0.05)
(0.05344609338 -0.9516958652 0.05)
(0.03743123699 -0.2203044819 0.05)
(0.0453734776 -0.267049162 0.05)
(0.05383594922 -0.3168557027 0.05)
(0.06285129682 -0.3699162383 0.05)
(0.07245476322 -0.4264381932 0.05)
(0.08268414154 -0.4866440017 0.05)
(0.09357983341 -0.550771451 0.05)
(0.1051849611 -0.6190743408 0.05)
(0.1175455118 -0.6918233312 0.05)
(0.1307105035 -0.7693069229 0.05)
(0.1447321706 -0.8518325448 0.05)
(0.1596661645 -0.9397277375 0.05)
(0.06186215313 -0.2147282847 0.05)
(0.07498819821 -0.2602897953 0.05)
(0.08897402282 -0.3088356667 0.05)
(0.1038735789 -0.3605531701 0.05)
(0.1197451118 -0.4156444798 0.05)
(0.1366510817 -0.4743263998 0.05)
(0.15465826 -0.5368306987 0.05)
(0.1738379144 -0.6034047522 0.05)
(0.1942660471 -0.6743123697 0.05)
(0.2160236699 -0.7498347494 0.05)
(0.2391971097 -0.8302715389 0.05)
(0.263878341 -0.9159419883 0.05)
(0.08551511678 -0.2064517548 0.05)
(0.1036598987 -0.2502571334 0.05)
(0.1229931965 -0.296931843 0.05)
(0.1435895904 -0.3466559365 0.05)
(0.1655295961 -0.3996237958 0.05)
(0.1888995552 -0.4560438682 0.05)
(0.2137917693 -0.5161389889 0.05)
(0.2403047551 -0.5801469988 0.05)
(0.2685435742 -0.6483215389 0.05)
(0.2986202133 -0.7209329689 0.05)
(0.3306540064 -0.7982693866 0.05)
(0.3647720943 -0.8806377371 0.05)
(0.1080926783 -0.1955789742 0.05)
(0.1310280159 -0.2370773428 0.05)
(0.1554656593 -0.281293929 0.05)
(0.1814998795 -0.3283993035 0.05)
(0.2092324497 -0.3785776108 0.05)
(0.2387725073 -0.4320263203 0.05)
(0.270236723 -0.4889565318 0.05)
(0.303749624 -0.5495935602 0.05)
(0.33944401 -0.6141776885 0.05)
(0.3774614342 -0.682965038 0.05)
(0.417952737 -0.7562285337 0.05)
(0.4610786267 -0.8342589554 0.05)
(0.1293109116 -0.1822466746 0.05)
(0.1567483797 -0.2209161671 0.05)
(0.1859830512 -0.2621185808 0.05)
(0.2171277024 -0.3060128587 0.05)
(0.2503040838 -0.3527705926 0.05)
(0.2856427565 -0.4025757908 0.05)
(0.3232832931 -0.4556251627 0.05)
(0.3633746652 -0.5121286638 0.05)
(0.4060757405 -0.5723101974 0.05)
(0.4515558587 -0.6364084254 0.05)
(0.4999954696 -0.7046776682 0.05)
(0.551586828 -0.7773888833 0.05)
(0.1489029851 -0.1666225172 0.05)
(0.1804975417 -0.2019768424 0.05)
(0.2141615984 -0.2396469393 0.05)
(0.2500250184 -0.2797781247 0.05)
(0.2882279988 -0.3225272796 0.05)
(0.3289208823 -0.3680626371 0.05)
(0.3722643883 -0.4165640427 0.05)
(0.4184300591 -0.4682234522 0.05)
(0.4676008328 -0.5232455735 0.05)
(0.5199717061 -0.5818486077 0.05)
(0.5757504689 -0.6442650721 0.05)
(0.6351585049 -0.710742695 0.05)
(0.1666225172 -0.1489029851 0.05)
(0.2019768424 -0.1804975417 0.05)
(0.2396469393 -0.2141615984 0.05)
(0.2797781247 -0.2500250184 0.05)
(0.3225272796 -0.2882279988 0.05)
(0.3680626371 -0.3289208823 0.05)
(0.4165640427 -0.3722643883 0.05)
(0.4682234522 -0.4184300591 0.05)
(0.5232455735 -0.4676008328 0.05)
(0.5818486077 -0.5199717061 0.05)
(0.6442650721 -0.5757504689 0.05)
(0.710742695 -0.6351585049 0.05)
(0.1822466746 -0.1293109116 0.05)
(0.2209161671 -0.1567483797 0.05)
(0.2621185808 -0.1859830512 0.05)
(0.3060128587 -0.2171277024 0.05)
(0.3527705926 -0.2503040838 0.05)
(0.4025757908 -0.2856427565 0.05)
(0.4556251627 -0.3232832931 0.05)
(0.5121286638 -0.3633746652 0.05)
(0.5723101974 -0.4060757405 0.05)
(0.6364084254 -0.4515558587 0.05)
(0.7046776682 -0.4999954696 0.05)
(0.7773888833 -0.551586828 0.05)
(0.1955789742 -0.1080926783 0.05)
(0.2370773428 -0.1310280159 0.05)
(0.281293929 -0.1554656593 0.05)
(0.3283993035 -0.1814998795 0.05)
(0.3785776108 -0.2092324497 0.05)
(0.4320263203 -0.2387725073 0.05)
(0.4889565318 -0.270236723 0.05)
(0.5495935602 -0.303749624 0.05)
(0.6141776885 -0.33944401 0.05)
(0.682965038 -0.3774614342 0.05)
(0.7562285337 -0.417952737 0.05)
(0.8342589554 -0.4610786267 0.05)
(0.2064517548 -0.08551511678 0.05)
(0.2502571334 -0.1036598987 0.05)
(0.296931843 -0.1229931965 0.05)
(0.3466559365 -0.1435895904 0.05)
(0.3996237958 -0.1655295961 0.05)
(0.4560438682 -0.1888995552 0.05)
(0.5161389889 -0.2137917693 0.05)
(0.5801469988 -0.2403047551 0.05)
(0.6483215389 -0.2685435742 0.05)
(0.7209329689 -0.2986202133 0.05)
(0.7982693866 -0.3306540064 0.05)
(0.8806377371 -0.3647720943 0.05)
(0.2147282847 -0.06186215313 0.05)
(0.2602897953 -0.07498819821 0.05)
(0.3088356667 -0.08897402282 0.05)
(0.3605531701 -0.1038735789 0.05)
(0.4156444798 -0.1197451118 0.05)
(0.4743263998 -0.1366510817 0.05)
(0.5368306987 -0.15465826 0.05)
(0.6034047522 -0.1738379144 0.05)
(0.6743123697 -0.1942660471 0.05)
(0.7498347494 -0.2160236699 0.05)
(0.8302715389 -0.2391971097 0.05)
(0.9159419883 -0.263878341 0.05)
(0.2203044819 -0.03743123699 0.05)
(0.267049162 -0.0453734776 0.05)
(0.3168557027 -0.05383594922 0.05)
(0.3699162383 -0.06285129682 0.05)
(0.4264381932 -0.07245476322 0.05)
(0.4866440017 -0.08268414154 0.05)
(0.550771451 -0.09357983341 0.05)
(0.6190743408 -0.1051849611 0.05)
(0.6918233312 -0.1175455118 0.05)
(0.7693069229 -0.1307105035 0.05)
(0.8518325448 -0.1447321706 0.05)
(0.9397277375 -0.1596661645 0.05)
(0.2231102224 -0.01252960133 0.05)
(0.2704502306 -0.01518815917 0.05)
(0.3208910944 -0.01802085732 0.05)
(0.3746273951 -0.02103862323 0.05)
(0.431869199 -0.024253254 0.05)
(0.492841773 -0.0276774003 0.05)
(0.5577859327 -0.03132458608 0.05)
(0.6269587104 -0.03520924595 0.05)
(0.700634213 -0.03934677343 0.05)
(0.7791046155 -0.0437535767 0.05)
(0.8626812622 -0.04844714051 0.05)
(0.9516958652 -0.05344609338 0.05)
)
;

boundaryField
{
    out
    {
        type            calculated;
        value           uniform (0 0 0);
    }
    in
    {
        type            calculated;
        value           uniform (0 0 0);
    }
    frontAndBack
    {
        type            empty;
    }
}


// ************************************************************************* //
