FoamFile
{
    version         2.0;
    format          ascii;
    class           dictionary;
    object          blockMeshDict;
}

//original file provided by Chalmers University

//m4 definitions:





//Mathematical constants:


//Geometry
 // pipe radius

//Number of cells:
//Radial direction:
  // in the O-grid belt
//Tangential direction:

//Axial direction:



//Radial grading:


//Axial grading:


//Plane I:




//Plane Q:





convertToMeters 1.0;

vertices
(
//Plane I:
(0.511945309577754 -0.511945309580367 0.00) // Vertex I0 = 0 
(0.511945309577754 0.511945309580367 0.00) // Vertex I1 = 1 
(-0.511945309577754 0.511945309580367 0.00) // Vertex I2 = 2 
(-0.511945309577754 -0.511945309580367 0.00) // Vertex I3 = 3 
(0.707106781184743 -0.707106781188352 0.00) // Vertex I12 = 4 
(0.707106781184743 0.707106781188352 0.00) // Vertex I13 = 5 
(-0.707106781184743 0.707106781188352 0.00) // Vertex I14 = 6 
(-0.707106781184743 -0.707106781188352 0.00) // Vertex I15 = 7 


//Plane Q:
(0.511945309577754 -0.511945309580367 10.00) // Vertex Q0 = 8 
(0.511945309577754 0.511945309580367 10.00) // Vertex Q1 = 9 
(-0.511945309577754 0.511945309580367 10.00) // Vertex Q2 = 10 
(-0.511945309577754 -0.511945309580367 10.00) // Vertex Q3 = 11 
(0.707106781184743 -0.707106781188352 10.00) // Vertex Q12 = 12 
(0.707106781184743 0.707106781188352 10.00) // Vertex Q13 = 13 
(-0.707106781184743 0.707106781188352 10.00) // Vertex Q14 = 14 
(-0.707106781184743 -0.707106781188352 10.00) // Vertex Q15 = 15 


);
// Defining blocks:
blocks
(
    //Blocks between plane I and plane Q:
    // block0 - positive x O-grid block belt
    hex (5 1 0 4 13 9 8 12 ) IQ
    (5 7 8)
    simpleGrading (3 1 3)
    // block1 - positive y O-grid block belt
    hex (6 2 1 5 14 10 9 13 ) IQ
    (5 7 8)
    simpleGrading (3 1 3)
    // block2 - negative x O-grid block belt
    hex (7 3 2 6 15 11 10 14 ) IQ
    (5 7 8)
    simpleGrading (3 1 3)
    // block3 - negative y O-grid block belt
    hex (4 0 3 7 12 8 11 15 ) IQ
    (5 7 8)
    simpleGrading (3 1 3)
    // block4 - central O-grid block 
    hex (0 1 2 3 8 9 10 11 ) IQ
    (7 7 8)
    simpleGrading (1 1 3)
);

edges
(
    //Plane I:
    arc 0  1  (0.724 0 0.00)
    arc 1  2  (0 0.724 0.00)
    arc 2  3  (-0.724 0 0.00)
    arc 3  0  (0 -0.724 0.00)
    arc 4 5 (1.0 0 0.00)
    arc 5 6 (0 1.0 0.00)
    arc 6 7 (-1.0 0 0.00)
    arc 7 4 (0 -1.0 0.00)
    
    //Plane Q:
    arc 8  9  (0.724 0 10.00)
    arc 9  10  (0 0.724 10.00)
    arc 10  11  (-0.724 0 10.00)
    arc 11  8  (0 -0.724 10.00)
    arc 12 13 (1.0 0 10.00)
    arc 13 14 (0 1.0 10.00)
    arc 14 15 (-1.0 0 10.00)
    arc 15 12 (0 -1.0 10.00)

);

//patches done 
// Defining patches:
patches
(
    patch inlet
    (
       (1 5 4 0)
       (2 6 5 1)
       (3 7 6 2)
       (0 4 7 3)
       (3 2 1 0)
    )
    wall wall
    (
       (4 5 13 12)
       (5 6 14 13)
       (6 7 15 14)
       (7 4 12 15)
    )
    patch outlet
    (
       (8 12 13 9)
       (9 13 14 10)
       (10 14 15 11)
       (11 15 12 8)
       (8 9 10 11)
    )
);

mergePatchPairs 
(
);

// ************************************************************************* //
