/*--------------------------------*- C++ -*----------------------------------*\
| =========                 |                                                 |
| \\      /  F ield         | OpenFOAM: The Open Source CFD Toolbox           |
|  \\    /   O peration     | Version:  2.2.0                                 |
|   \\  /    A nd           | Web:      www.OpenFOAM.org                      |
|    \\/     M anipulation  |                                                 |
\*---------------------------------------------------------------------------*/
FoamFile
{
    version     2.0;
    format      ascii;
    class       volScalarField;
    location    "constant/polyMesh";
    object      Volumes;
}
// * * * * * * * * * * * * * * * * * * * * * * * * * * * * * * * * * * * * * //

dimensions      [0 3 0 0 0 0 0];

internalField   nonuniform List<scalar> 
320
(
0.00174155
0.00229152
0.00284148
0.00339145
0.00394142
0.00449138
0.00504135
0.00559131
0.00174155
0.00229152
0.00284149
0.00339145
0.00394142
0.00449138
0.00504135
0.00559131
0.00174156
0.00229152
0.00284149
0.00339145
0.00394142
0.00449138
0.00504135
0.00559131
0.00174156
0.00229152
0.00284149
0.00339145
0.00394142
0.00449138
0.00504135
0.00559131
0.00174156
0.00229152
0.00284149
0.00339145
0.00394142
0.00449138
0.00504135
0.00559131
0.00174156
0.00229152
0.00284149
0.00339145
0.00394142
0.00449138
0.00504135
0.00559131
0.00174156
0.00229152
0.00284149
0.00339145
0.00394142
0.00449138
0.00504135
0.00559131
0.00174156
0.00229152
0.00284149
0.00339145
0.00394142
0.00449138
0.00504135
0.00559131
0.00174155
0.00229152
0.00284149
0.00339145
0.00394142
0.00449138
0.00504135
0.00559131
0.00174155
0.00229152
0.00284148
0.00339145
0.00394142
0.00449138
0.00504135
0.00559131
0.00174155
0.00229152
0.00284148
0.00339145
0.00394142
0.00449138
0.00504135
0.00559131
0.00174155
0.00229152
0.00284149
0.00339145
0.00394142
0.00449138
0.00504135
0.00559131
0.00174156
0.00229152
0.00284149
0.00339145
0.00394142
0.00449138
0.00504135
0.00559131
0.00174156
0.00229152
0.00284149
0.00339145
0.00394142
0.00449138
0.00504135
0.00559131
0.00174156
0.00229152
0.00284149
0.00339145
0.00394142
0.00449138
0.00504135
0.00559131
0.00174156
0.00229152
0.00284149
0.00339145
0.00394142
0.00449138
0.00504135
0.00559131
0.00174156
0.00229152
0.00284149
0.00339145
0.00394142
0.00449138
0.00504135
0.00559131
0.00174156
0.00229152
0.00284149
0.00339145
0.00394142
0.00449138
0.00504135
0.00559131
0.00174155
0.00229152
0.00284149
0.00339145
0.00394142
0.00449138
0.00504135
0.00559131
0.00174155
0.00229152
0.00284148
0.00339145
0.00394142
0.00449138
0.00504135
0.00559131
0.00174155
0.00229152
0.00284148
0.00339145
0.00394142
0.00449138
0.00504135
0.00559131
0.00174155
0.00229152
0.00284149
0.00339145
0.00394142
0.00449138
0.00504135
0.00559131
0.00174156
0.00229152
0.00284149
0.00339145
0.00394142
0.00449138
0.00504135
0.00559131
0.00174156
0.00229152
0.00284149
0.00339145
0.00394142
0.00449138
0.00504135
0.00559131
0.00174156
0.00229152
0.00284149
0.00339145
0.00394142
0.00449138
0.00504135
0.00559131
0.00174156
0.00229152
0.00284149
0.00339145
0.00394142
0.00449138
0.00504135
0.00559131
0.00174156
0.00229152
0.00284149
0.00339145
0.00394142
0.00449138
0.00504135
0.00559131
0.00174156
0.00229152
0.00284149
0.00339145
0.00394142
0.00449138
0.00504135
0.00559131
0.00174155
0.00229152
0.00284149
0.00339145
0.00394142
0.00449138
0.00504135
0.00559131
0.00174155
0.00229152
0.00284148
0.00339145
0.00394142
0.00449138
0.00504135
0.00559131
0.00174155
0.00229152
0.00284148
0.00339145
0.00394142
0.00449138
0.00504135
0.00559131
0.00174155
0.00229152
0.00284149
0.00339145
0.00394142
0.00449138
0.00504135
0.00559131
0.00174156
0.00229152
0.00284149
0.00339145
0.00394142
0.00449138
0.00504135
0.00559131
0.00174156
0.00229152
0.00284149
0.00339145
0.00394142
0.00449138
0.00504135
0.00559131
0.00174156
0.00229152
0.00284149
0.00339145
0.00394142
0.00449138
0.00504135
0.00559131
0.00174156
0.00229152
0.00284149
0.00339145
0.00394142
0.00449138
0.00504135
0.00559131
0.00174156
0.00229152
0.00284149
0.00339145
0.00394142
0.00449138
0.00504135
0.00559131
0.00174156
0.00229152
0.00284149
0.00339145
0.00394142
0.00449138
0.00504135
0.00559131
0.00174155
0.00229152
0.00284149
0.00339145
0.00394142
0.00449138
0.00504135
0.00559131
0.00174155
0.00229152
0.00284148
0.00339145
0.00394142
0.00449138
0.00504135
0.00559131
)
;

boundaryField
{
    up
    {
        type            calculated;
        value           uniform 0;
    }
    hole
    {
        type            calculated;
        value           uniform 0;
    }
    frontAndBack
    {
        type            empty;
    }
}


// ************************************************************************* //
