/*--------------------------------*- C++ -*----------------------------------*\
| =========                 |                                                 |
| \\      /  F ield         | foam-extend: Open Source CFD                    |
|  \\    /   O peration     | Version:  3.0                                   |
|   \\  /    A nd           | Web:         http://www.extend-project.de       |
|    \\/     M anipulation  |                                                 |
\*---------------------------------------------------------------------------*/
FoamFile
{
    version     2.0;
    format      ascii;
    class       volVectorField;
    location    "constant/polyMesh";
    object      Centers;
}
// * * * * * * * * * * * * * * * * * * * * * * * * * * * * * * * * * * * * * //

dimensions      [0 0 0 0 0 0 0];

internalField   nonuniform List<vector> 
1920
(
(0.213903 0.00700246 0.05)
(0.24204 0.00792358 0.05)
(0.271227 0.00887904 0.05)
(0.301501 0.0098701 0.05)
(0.332902 0.0108981 0.05)
(0.365471 0.0119643 0.05)
(0.399252 0.0130702 0.05)
(0.43429 0.0142172 0.05)
(0.470631 0.0154068 0.05)
(0.508322 0.0166407 0.05)
(0.547415 0.0179205 0.05)
(0.587961 0.0192479 0.05)
(0.630014 0.0206245 0.05)
(0.67363 0.0220524 0.05)
(0.718867 0.0235333 0.05)
(0.765785 0.0250692 0.05)
(0.814447 0.0266622 0.05)
(0.864917 0.0283144 0.05)
(0.917263 0.0300281 0.05)
(0.971553 0.0318054 0.05)
(0.212987 0.0209774 0.05)
(0.241004 0.0237368 0.05)
(0.270065 0.0265991 0.05)
(0.300209 0.029568 0.05)
(0.331476 0.0326475 0.05)
(0.363906 0.0358416 0.05)
(0.397543 0.0391545 0.05)
(0.43243 0.0425907 0.05)
(0.468615 0.0461546 0.05)
(0.506145 0.049851 0.05)
(0.545071 0.0536848 0.05)
(0.585443 0.0576611 0.05)
(0.627316 0.0617853 0.05)
(0.670745 0.0660627 0.05)
(0.715789 0.070499 0.05)
(0.762506 0.0751003 0.05)
(0.810959 0.0798725 0.05)
(0.861213 0.0848221 0.05)
(0.913335 0.0899556 0.05)
(0.967393 0.0952799 0.05)
(0.211159 0.0348625 0.05)
(0.238935 0.0394484 0.05)
(0.267747 0.0442053 0.05)
(0.297633 0.0491394 0.05)
(0.328631 0.0542572 0.05)
(0.360783 0.0595655 0.05)
(0.394131 0.0650712 0.05)
(0.428719 0.0707818 0.05)
(0.464593 0.0767047 0.05)
(0.501801 0.0828477 0.05)
(0.540393 0.0892192 0.05)
(0.580419 0.0958275 0.05)
(0.621932 0.102681 0.05)
(0.664989 0.10979 0.05)
(0.709645 0.117163 0.05)
(0.755962 0.12481 0.05)
(0.803999 0.132741 0.05)
(0.853822 0.140967 0.05)
(0.905496 0.149498 0.05)
(0.95909 0.158346 0.05)
(0.208427 0.0485983 0.05)
(0.235844 0.054991 0.05)
(0.264283 0.0616221 0.05)
(0.293782 0.0685003 0.05)
(0.324379 0.0756345 0.05)
(0.356115 0.0830343 0.05)
(0.389031 0.0907093 0.05)
(0.423172 0.0986698 0.05)
(0.458582 0.106926 0.05)
(0.495308 0.11549 0.05)
(0.5334 0.124372 0.05)
(0.572908 0.133584 0.05)
(0.613885 0.143138 0.05)
(0.656384 0.153047 0.05)
(0.700463 0.163325 0.05)
(0.74618 0.173985 0.05)
(0.793596 0.185041 0.05)
(0.842774 0.196507 0.05)
(0.893779 0.2084 0.05)
(0.94668 0.220735 0.05)
(0.204802 0.0621261 0.05)
(0.231742 0.0702982 0.05)
(0.259687 0.0787751 0.05)
(0.288673 0.0875679 0.05)
(0.318738 0.096688 0.05)
(0.349921 0.106148 0.05)
(0.382265 0.115959 0.05)
(0.415812 0.126135 0.05)
(0.450607 0.13669 0.05)
(0.486695 0.147637 0.05)
(0.524124 0.158991 0.05)
(0.562945 0.170768 0.05)
(0.603209 0.182981 0.05)
(0.644969 0.195649 0.05)
(0.688281 0.208788 0.05)
(0.733203 0.222415 0.05)
(0.779795 0.236548 0.05)
(0.828117 0.251207 0.05)
(0.878236 0.26641 0.05)
(0.930217 0.282178 0.05)
(0.2003 0.0753877 0.05)
(0.226648 0.0853043 0.05)
(0.253979 0.0955908 0.05)
(0.282327 0.10626 0.05)
(0.311731 0.117327 0.05)
(0.34223 0.128806 0.05)
(0.373863 0.140712 0.05)
(0.406672 0.153061 0.05)
(0.440702 0.165868 0.05)
(0.475997 0.179152 0.05)
(0.512603 0.19293 0.05)
(0.550571 0.20722 0.05)
(0.58995 0.222041 0.05)
(0.630792 0.237413 0.05)
(0.673152 0.253357 0.05)
(0.717087 0.269892 0.05)
(0.762654 0.287043 0.05)
(0.809915 0.30483 0.05)
(0.858931 0.323279 0.05)
(0.90977 0.342413 0.05)
(0.194941 0.0883266 0.05)
(0.220584 0.0999452 0.05)
(0.247183 0.111997 0.05)
(0.274773 0.124498 0.05)
(0.30339 0.137464 0.05)
(0.333073 0.150913 0.05)
(0.363859 0.164863 0.05)
(0.395791 0.179331 0.05)
(0.42891 0.194337 0.05)
(0.46326 0.209901 0.05)
(0.498888 0.226043 0.05)
(0.535839 0.242786 0.05)
(0.574164 0.260151 0.05)
(0.613914 0.278161 0.05)
(0.655141 0.29684 0.05)
(0.6979 0.316214 0.05)
(0.742248 0.336308 0.05)
(0.788244 0.357149 0.05)
(0.835949 0.378763 0.05)
(0.885427 0.401182 0.05)
(0.188747 0.100887 0.05)
(0.213575 0.114158 0.05)
(0.239329 0.127924 0.05)
(0.266042 0.142202 0.05)
(0.29375 0.157013 0.05)
(0.322489 0.172374 0.05)
(0.352298 0.188307 0.05)
(0.383215 0.204833 0.05)
(0.415281 0.221973 0.05)
(0.44854 0.23975 0.05)
(0.483036 0.258188 0.05)
(0.518813 0.277311 0.05)
(0.55592 0.297146 0.05)
(0.594407 0.317717 0.05)
(0.634324 0.339053 0.05)
(0.675724 0.361182 0.05)
(0.718663 0.384133 0.05)
(0.763197 0.407937 0.05)
(0.809387 0.432626 0.05)
(0.857292 0.458232 0.05)
(0.181744 0.113016 0.05)
(0.205651 0.127882 0.05)
(0.23045 0.143303 0.05)
(0.256172 0.159298 0.05)
(0.282852 0.175889 0.05)
(0.310525 0.193097 0.05)
(0.339228 0.210945 0.05)
(0.368998 0.229457 0.05)
(0.399875 0.248658 0.05)
(0.4319 0.268572 0.05)
(0.465115 0.289227 0.05)
(0.499565 0.31065 0.05)
(0.535296 0.332868 0.05)
(0.572355 0.355913 0.05)
(0.61079 0.379814 0.05)
(0.650655 0.404603 0.05)
(0.692001 0.430314 0.05)
(0.734883 0.45698 0.05)
(0.779359 0.484636 0.05)
(0.825487 0.513321 0.05)
(0.173964 0.124661 0.05)
(0.196847 0.141059 0.05)
(0.220584 0.158068 0.05)
(0.245205 0.175711 0.05)
(0.270743 0.194012 0.05)
(0.297231 0.212993 0.05)
(0.324705 0.23268 0.05)
(0.3532 0.2531 0.05)
(0.382755 0.274279 0.05)
(0.413409 0.296245 0.05)
(0.445203 0.319028 0.05)
(0.478178 0.342658 0.05)
(0.512379 0.367166 0.05)
(0.547851 0.392585 0.05)
(0.584642 0.418948 0.05)
(0.622799 0.446292 0.05)
(0.662375 0.474651 0.05)
(0.703421 0.504065 0.05)
(0.745993 0.534571 0.05)
(0.790147 0.566211 0.05)
(0.165438 0.135771 0.05)
(0.1872 0.153631 0.05)
(0.209773 0.172157 0.05)
(0.233188 0.191372 0.05)
(0.257474 0.211304 0.05)
(0.282664 0.231977 0.05)
(0.308792 0.253419 0.05)
(0.335891 0.275658 0.05)
(0.363997 0.298725 0.05)
(0.393149 0.322649 0.05)
(0.423384 0.347462 0.05)
(0.454743 0.373198 0.05)
(0.487268 0.399891 0.05)
(0.521002 0.427575 0.05)
(0.555989 0.456289 0.05)
(0.592277 0.486069 0.05)
(0.629913 0.516956 0.05)
(0.668948 0.548991 0.05)
(0.709433 0.582217 0.05)
(0.751423 0.616677 0.05)
(0.156204 0.146301 0.05)
(0.176751 0.165545 0.05)
(0.198065 0.185508 0.05)
(0.220172 0.206214 0.05)
(0.243103 0.227691 0.05)
(0.266887 0.249967 0.05)
(0.291556 0.273072 0.05)
(0.317143 0.297036 0.05)
(0.34368 0.321892 0.05)
(0.371205 0.347671 0.05)
(0.399753 0.374409 0.05)
(0.429362 0.402141 0.05)
(0.460071 0.430903 0.05)
(0.491922 0.460735 0.05)
(0.524956 0.491675 0.05)
(0.559218 0.523765 0.05)
(0.594754 0.557048 0.05)
(0.63161 0.591567 0.05)
(0.669836 0.627369 0.05)
(0.709482 0.664502 0.05)
(0.146301 0.156204 0.05)
(0.165545 0.176751 0.05)
(0.185508 0.198065 0.05)
(0.206214 0.220172 0.05)
(0.227691 0.243103 0.05)
(0.249967 0.266887 0.05)
(0.273072 0.291556 0.05)
(0.297036 0.317143 0.05)
(0.321892 0.34368 0.05)
(0.347671 0.371205 0.05)
(0.374409 0.399753 0.05)
(0.402141 0.429362 0.05)
(0.430903 0.460071 0.05)
(0.460735 0.491922 0.05)
(0.491675 0.524956 0.05)
(0.523765 0.559218 0.05)
(0.557048 0.594754 0.05)
(0.591567 0.63161 0.05)
(0.627369 0.669836 0.05)
(0.664502 0.709482 0.05)
(0.135771 0.165438 0.05)
(0.153631 0.1872 0.05)
(0.172157 0.209773 0.05)
(0.191372 0.233188 0.05)
(0.211304 0.257474 0.05)
(0.231977 0.282664 0.05)
(0.253419 0.308792 0.05)
(0.275658 0.335891 0.05)
(0.298725 0.363997 0.05)
(0.322649 0.393149 0.05)
(0.347462 0.423384 0.05)
(0.373198 0.454743 0.05)
(0.399891 0.487268 0.05)
(0.427575 0.521002 0.05)
(0.456289 0.555989 0.05)
(0.486069 0.592277 0.05)
(0.516956 0.629913 0.05)
(0.548991 0.668948 0.05)
(0.582217 0.709433 0.05)
(0.616677 0.751423 0.05)
(0.124661 0.173964 0.05)
(0.141059 0.196847 0.05)
(0.158068 0.220584 0.05)
(0.175711 0.245205 0.05)
(0.194012 0.270743 0.05)
(0.212993 0.297231 0.05)
(0.23268 0.324705 0.05)
(0.2531 0.3532 0.05)
(0.274279 0.382755 0.05)
(0.296245 0.413409 0.05)
(0.319028 0.445203 0.05)
(0.342658 0.478178 0.05)
(0.367166 0.512379 0.05)
(0.392585 0.547851 0.05)
(0.418948 0.584642 0.05)
(0.446292 0.622799 0.05)
(0.474651 0.662375 0.05)
(0.504065 0.703421 0.05)
(0.534571 0.745993 0.05)
(0.566211 0.790147 0.05)
(0.113016 0.181744 0.05)
(0.127882 0.205651 0.05)
(0.143303 0.23045 0.05)
(0.159298 0.256172 0.05)
(0.175889 0.282852 0.05)
(0.193097 0.310525 0.05)
(0.210945 0.339228 0.05)
(0.229457 0.368998 0.05)
(0.248658 0.399875 0.05)
(0.268572 0.4319 0.05)
(0.289227 0.465115 0.05)
(0.31065 0.499565 0.05)
(0.332868 0.535296 0.05)
(0.355913 0.572355 0.05)
(0.379814 0.61079 0.05)
(0.404603 0.650655 0.05)
(0.430314 0.692001 0.05)
(0.45698 0.734883 0.05)
(0.484636 0.779359 0.05)
(0.513321 0.825487 0.05)
(0.100887 0.188747 0.05)
(0.114158 0.213575 0.05)
(0.127924 0.239329 0.05)
(0.142202 0.266042 0.05)
(0.157013 0.29375 0.05)
(0.172374 0.322489 0.05)
(0.188307 0.352298 0.05)
(0.204833 0.383215 0.05)
(0.221973 0.415281 0.05)
(0.23975 0.44854 0.05)
(0.258188 0.483036 0.05)
(0.277311 0.518813 0.05)
(0.297146 0.55592 0.05)
(0.317717 0.594407 0.05)
(0.339053 0.634324 0.05)
(0.361182 0.675724 0.05)
(0.384133 0.718663 0.05)
(0.407937 0.763197 0.05)
(0.432626 0.809387 0.05)
(0.458232 0.857292 0.05)
(0.0883266 0.194941 0.05)
(0.0999452 0.220584 0.05)
(0.111997 0.247183 0.05)
(0.124498 0.274773 0.05)
(0.137464 0.30339 0.05)
(0.150913 0.333073 0.05)
(0.164863 0.363859 0.05)
(0.179331 0.395791 0.05)
(0.194337 0.42891 0.05)
(0.209901 0.46326 0.05)
(0.226043 0.498888 0.05)
(0.242786 0.535839 0.05)
(0.260151 0.574164 0.05)
(0.278161 0.613914 0.05)
(0.29684 0.655141 0.05)
(0.316214 0.6979 0.05)
(0.336308 0.742248 0.05)
(0.357149 0.788244 0.05)
(0.378763 0.835949 0.05)
(0.401182 0.885427 0.05)
(0.0753877 0.2003 0.05)
(0.0853043 0.226648 0.05)
(0.0955908 0.253979 0.05)
(0.10626 0.282327 0.05)
(0.117327 0.311731 0.05)
(0.128806 0.34223 0.05)
(0.140712 0.373863 0.05)
(0.153061 0.406672 0.05)
(0.165868 0.440702 0.05)
(0.179152 0.475997 0.05)
(0.19293 0.512603 0.05)
(0.20722 0.550571 0.05)
(0.222041 0.58995 0.05)
(0.237413 0.630792 0.05)
(0.253357 0.673152 0.05)
(0.269892 0.717087 0.05)
(0.287043 0.762654 0.05)
(0.30483 0.809915 0.05)
(0.323279 0.858931 0.05)
(0.342413 0.90977 0.05)
(0.0621261 0.204802 0.05)
(0.0702982 0.231742 0.05)
(0.0787751 0.259687 0.05)
(0.0875679 0.288673 0.05)
(0.096688 0.318738 0.05)
(0.106148 0.349921 0.05)
(0.115959 0.382265 0.05)
(0.126135 0.415812 0.05)
(0.13669 0.450607 0.05)
(0.147637 0.486695 0.05)
(0.158991 0.524124 0.05)
(0.170768 0.562945 0.05)
(0.182981 0.603209 0.05)
(0.195649 0.644969 0.05)
(0.208788 0.688281 0.05)
(0.222415 0.733203 0.05)
(0.236548 0.779795 0.05)
(0.251207 0.828117 0.05)
(0.26641 0.878236 0.05)
(0.282178 0.930217 0.05)
(0.0485983 0.208427 0.05)
(0.054991 0.235844 0.05)
(0.0616221 0.264283 0.05)
(0.0685003 0.293782 0.05)
(0.0756345 0.324379 0.05)
(0.0830343 0.356115 0.05)
(0.0907093 0.389031 0.05)
(0.0986698 0.423172 0.05)
(0.106926 0.458582 0.05)
(0.11549 0.495308 0.05)
(0.124372 0.5334 0.05)
(0.133584 0.572908 0.05)
(0.143138 0.613885 0.05)
(0.153047 0.656384 0.05)
(0.163325 0.700463 0.05)
(0.173985 0.74618 0.05)
(0.185041 0.793596 0.05)
(0.196507 0.842774 0.05)
(0.2084 0.893779 0.05)
(0.220735 0.94668 0.05)
(0.0348625 0.211159 0.05)
(0.0394484 0.238935 0.05)
(0.0442053 0.267747 0.05)
(0.0491394 0.297633 0.05)
(0.0542572 0.328631 0.05)
(0.0595655 0.360783 0.05)
(0.0650712 0.394131 0.05)
(0.0707818 0.428719 0.05)
(0.0767047 0.464593 0.05)
(0.0828477 0.501801 0.05)
(0.0892192 0.540393 0.05)
(0.0958275 0.580419 0.05)
(0.102681 0.621932 0.05)
(0.10979 0.664989 0.05)
(0.117163 0.709645 0.05)
(0.12481 0.755962 0.05)
(0.132741 0.803999 0.05)
(0.140967 0.853822 0.05)
(0.149498 0.905496 0.05)
(0.158346 0.95909 0.05)
(0.0209774 0.212987 0.05)
(0.0237368 0.241004 0.05)
(0.0265991 0.270065 0.05)
(0.029568 0.300209 0.05)
(0.0326475 0.331476 0.05)
(0.0358416 0.363906 0.05)
(0.0391545 0.397543 0.05)
(0.0425907 0.43243 0.05)
(0.0461546 0.468615 0.05)
(0.049851 0.506145 0.05)
(0.0536848 0.545071 0.05)
(0.0576611 0.585443 0.05)
(0.0617853 0.627316 0.05)
(0.0660627 0.670745 0.05)
(0.070499 0.715789 0.05)
(0.0751003 0.762506 0.05)
(0.0798725 0.810959 0.05)
(0.0848221 0.861213 0.05)
(0.0899556 0.913335 0.05)
(0.0952799 0.967393 0.05)
(0.00700246 0.213903 0.05)
(0.00792358 0.24204 0.05)
(0.00887904 0.271227 0.05)
(0.0098701 0.301501 0.05)
(0.0108981 0.332902 0.05)
(0.0119643 0.365471 0.05)
(0.0130702 0.399252 0.05)
(0.0142172 0.43429 0.05)
(0.0154068 0.470631 0.05)
(0.0166407 0.508322 0.05)
(0.0179205 0.547415 0.05)
(0.0192479 0.587961 0.05)
(0.0206245 0.630014 0.05)
(0.0220524 0.67363 0.05)
(0.0235333 0.718867 0.05)
(0.0250692 0.765785 0.05)
(0.0266622 0.814447 0.05)
(0.0283144 0.864917 0.05)
(0.0300281 0.917263 0.05)
(0.0318054 0.971553 0.05)
(-0.00700246 0.213903 0.05)
(-0.00792358 0.24204 0.05)
(-0.00887904 0.271227 0.05)
(-0.0098701 0.301501 0.05)
(-0.0108981 0.332902 0.05)
(-0.0119643 0.365471 0.05)
(-0.0130702 0.399252 0.05)
(-0.0142172 0.43429 0.05)
(-0.0154068 0.470631 0.05)
(-0.0166407 0.508322 0.05)
(-0.0179205 0.547415 0.05)
(-0.0192479 0.587961 0.05)
(-0.0206245 0.630014 0.05)
(-0.0220524 0.67363 0.05)
(-0.0235333 0.718867 0.05)
(-0.0250692 0.765785 0.05)
(-0.0266622 0.814447 0.05)
(-0.0283144 0.864917 0.05)
(-0.0300281 0.917263 0.05)
(-0.0318054 0.971553 0.05)
(-0.0209774 0.212987 0.05)
(-0.0237368 0.241004 0.05)
(-0.0265991 0.270065 0.05)
(-0.029568 0.300209 0.05)
(-0.0326475 0.331476 0.05)
(-0.0358416 0.363906 0.05)
(-0.0391545 0.397543 0.05)
(-0.0425907 0.43243 0.05)
(-0.0461546 0.468615 0.05)
(-0.049851 0.506145 0.05)
(-0.0536848 0.545071 0.05)
(-0.0576611 0.585443 0.05)
(-0.0617853 0.627316 0.05)
(-0.0660627 0.670745 0.05)
(-0.070499 0.715789 0.05)
(-0.0751003 0.762506 0.05)
(-0.0798725 0.810959 0.05)
(-0.0848221 0.861213 0.05)
(-0.0899556 0.913335 0.05)
(-0.0952799 0.967393 0.05)
(-0.0348625 0.211159 0.05)
(-0.0394484 0.238935 0.05)
(-0.0442053 0.267747 0.05)
(-0.0491394 0.297633 0.05)
(-0.0542572 0.328631 0.05)
(-0.0595655 0.360783 0.05)
(-0.0650712 0.394131 0.05)
(-0.0707818 0.428719 0.05)
(-0.0767047 0.464593 0.05)
(-0.0828477 0.501801 0.05)
(-0.0892192 0.540393 0.05)
(-0.0958275 0.580419 0.05)
(-0.102681 0.621932 0.05)
(-0.10979 0.664989 0.05)
(-0.117163 0.709645 0.05)
(-0.12481 0.755962 0.05)
(-0.132741 0.803999 0.05)
(-0.140967 0.853822 0.05)
(-0.149498 0.905496 0.05)
(-0.158346 0.95909 0.05)
(-0.0485983 0.208427 0.05)
(-0.054991 0.235844 0.05)
(-0.0616221 0.264283 0.05)
(-0.0685003 0.293782 0.05)
(-0.0756345 0.324379 0.05)
(-0.0830343 0.356115 0.05)
(-0.0907093 0.389031 0.05)
(-0.0986698 0.423172 0.05)
(-0.106926 0.458582 0.05)
(-0.11549 0.495308 0.05)
(-0.124372 0.5334 0.05)
(-0.133584 0.572908 0.05)
(-0.143138 0.613885 0.05)
(-0.153047 0.656384 0.05)
(-0.163325 0.700463 0.05)
(-0.173985 0.74618 0.05)
(-0.185041 0.793596 0.05)
(-0.196507 0.842774 0.05)
(-0.2084 0.893779 0.05)
(-0.220735 0.94668 0.05)
(-0.0621261 0.204802 0.05)
(-0.0702982 0.231742 0.05)
(-0.0787751 0.259687 0.05)
(-0.0875679 0.288673 0.05)
(-0.096688 0.318738 0.05)
(-0.106148 0.349921 0.05)
(-0.115959 0.382265 0.05)
(-0.126135 0.415812 0.05)
(-0.13669 0.450607 0.05)
(-0.147637 0.486695 0.05)
(-0.158991 0.524124 0.05)
(-0.170768 0.562945 0.05)
(-0.182981 0.603209 0.05)
(-0.195649 0.644969 0.05)
(-0.208788 0.688281 0.05)
(-0.222415 0.733203 0.05)
(-0.236548 0.779795 0.05)
(-0.251207 0.828117 0.05)
(-0.26641 0.878236 0.05)
(-0.282178 0.930217 0.05)
(-0.0753877 0.2003 0.05)
(-0.0853043 0.226648 0.05)
(-0.0955908 0.253979 0.05)
(-0.10626 0.282327 0.05)
(-0.117327 0.311731 0.05)
(-0.128806 0.34223 0.05)
(-0.140712 0.373863 0.05)
(-0.153061 0.406672 0.05)
(-0.165868 0.440702 0.05)
(-0.179152 0.475997 0.05)
(-0.19293 0.512603 0.05)
(-0.20722 0.550571 0.05)
(-0.222041 0.58995 0.05)
(-0.237413 0.630792 0.05)
(-0.253357 0.673152 0.05)
(-0.269892 0.717087 0.05)
(-0.287043 0.762654 0.05)
(-0.30483 0.809915 0.05)
(-0.323279 0.858931 0.05)
(-0.342413 0.90977 0.05)
(-0.0883266 0.194941 0.05)
(-0.0999452 0.220584 0.05)
(-0.111997 0.247183 0.05)
(-0.124498 0.274773 0.05)
(-0.137464 0.30339 0.05)
(-0.150913 0.333073 0.05)
(-0.164863 0.363859 0.05)
(-0.179331 0.395791 0.05)
(-0.194337 0.42891 0.05)
(-0.209901 0.46326 0.05)
(-0.226043 0.498888 0.05)
(-0.242786 0.535839 0.05)
(-0.260151 0.574164 0.05)
(-0.278161 0.613914 0.05)
(-0.29684 0.655141 0.05)
(-0.316214 0.6979 0.05)
(-0.336308 0.742248 0.05)
(-0.357149 0.788244 0.05)
(-0.378763 0.835949 0.05)
(-0.401182 0.885427 0.05)
(-0.100887 0.188747 0.05)
(-0.114158 0.213575 0.05)
(-0.127924 0.239329 0.05)
(-0.142202 0.266042 0.05)
(-0.157013 0.29375 0.05)
(-0.172374 0.322489 0.05)
(-0.188307 0.352298 0.05)
(-0.204833 0.383215 0.05)
(-0.221973 0.415281 0.05)
(-0.23975 0.44854 0.05)
(-0.258188 0.483036 0.05)
(-0.277311 0.518813 0.05)
(-0.297146 0.55592 0.05)
(-0.317717 0.594407 0.05)
(-0.339053 0.634324 0.05)
(-0.361182 0.675724 0.05)
(-0.384133 0.718663 0.05)
(-0.407937 0.763197 0.05)
(-0.432626 0.809387 0.05)
(-0.458232 0.857292 0.05)
(-0.113016 0.181744 0.05)
(-0.127882 0.205651 0.05)
(-0.143303 0.23045 0.05)
(-0.159298 0.256172 0.05)
(-0.175889 0.282852 0.05)
(-0.193097 0.310525 0.05)
(-0.210945 0.339228 0.05)
(-0.229457 0.368998 0.05)
(-0.248658 0.399875 0.05)
(-0.268572 0.4319 0.05)
(-0.289227 0.465115 0.05)
(-0.31065 0.499565 0.05)
(-0.332868 0.535296 0.05)
(-0.355913 0.572355 0.05)
(-0.379814 0.61079 0.05)
(-0.404603 0.650655 0.05)
(-0.430314 0.692001 0.05)
(-0.45698 0.734883 0.05)
(-0.484636 0.779359 0.05)
(-0.513321 0.825487 0.05)
(-0.124661 0.173964 0.05)
(-0.141059 0.196847 0.05)
(-0.158068 0.220584 0.05)
(-0.175711 0.245205 0.05)
(-0.194012 0.270743 0.05)
(-0.212993 0.297231 0.05)
(-0.23268 0.324705 0.05)
(-0.2531 0.3532 0.05)
(-0.274279 0.382755 0.05)
(-0.296245 0.413409 0.05)
(-0.319028 0.445203 0.05)
(-0.342658 0.478178 0.05)
(-0.367166 0.512379 0.05)
(-0.392585 0.547851 0.05)
(-0.418948 0.584642 0.05)
(-0.446292 0.622799 0.05)
(-0.474651 0.662375 0.05)
(-0.504065 0.703421 0.05)
(-0.534571 0.745993 0.05)
(-0.566211 0.790147 0.05)
(-0.135771 0.165438 0.05)
(-0.153631 0.1872 0.05)
(-0.172157 0.209773 0.05)
(-0.191372 0.233188 0.05)
(-0.211304 0.257474 0.05)
(-0.231977 0.282664 0.05)
(-0.253419 0.308792 0.05)
(-0.275658 0.335891 0.05)
(-0.298725 0.363997 0.05)
(-0.322649 0.393149 0.05)
(-0.347462 0.423384 0.05)
(-0.373198 0.454743 0.05)
(-0.399891 0.487268 0.05)
(-0.427575 0.521002 0.05)
(-0.456289 0.555989 0.05)
(-0.486069 0.592277 0.05)
(-0.516956 0.629913 0.05)
(-0.548991 0.668948 0.05)
(-0.582217 0.709433 0.05)
(-0.616677 0.751423 0.05)
(-0.146301 0.156204 0.05)
(-0.165545 0.176751 0.05)
(-0.185508 0.198065 0.05)
(-0.206214 0.220172 0.05)
(-0.227691 0.243103 0.05)
(-0.249967 0.266887 0.05)
(-0.273072 0.291556 0.05)
(-0.297036 0.317143 0.05)
(-0.321892 0.34368 0.05)
(-0.347671 0.371205 0.05)
(-0.374409 0.399753 0.05)
(-0.402141 0.429362 0.05)
(-0.430903 0.460071 0.05)
(-0.460735 0.491922 0.05)
(-0.491675 0.524956 0.05)
(-0.523765 0.559218 0.05)
(-0.557048 0.594754 0.05)
(-0.591567 0.63161 0.05)
(-0.627369 0.669836 0.05)
(-0.664502 0.709482 0.05)
(-0.156204 0.146301 0.05)
(-0.176751 0.165545 0.05)
(-0.198065 0.185508 0.05)
(-0.220172 0.206214 0.05)
(-0.243103 0.227691 0.05)
(-0.266887 0.249967 0.05)
(-0.291556 0.273072 0.05)
(-0.317143 0.297036 0.05)
(-0.34368 0.321892 0.05)
(-0.371205 0.347671 0.05)
(-0.399753 0.374409 0.05)
(-0.429362 0.402141 0.05)
(-0.460071 0.430903 0.05)
(-0.491922 0.460735 0.05)
(-0.524956 0.491675 0.05)
(-0.559218 0.523765 0.05)
(-0.594754 0.557048 0.05)
(-0.63161 0.591567 0.05)
(-0.669836 0.627369 0.05)
(-0.709482 0.664502 0.05)
(-0.165438 0.135771 0.05)
(-0.1872 0.153631 0.05)
(-0.209773 0.172157 0.05)
(-0.233188 0.191372 0.05)
(-0.257474 0.211304 0.05)
(-0.282664 0.231977 0.05)
(-0.308792 0.253419 0.05)
(-0.335891 0.275658 0.05)
(-0.363997 0.298725 0.05)
(-0.393149 0.322649 0.05)
(-0.423384 0.347462 0.05)
(-0.454743 0.373198 0.05)
(-0.487268 0.399891 0.05)
(-0.521002 0.427575 0.05)
(-0.555989 0.456289 0.05)
(-0.592277 0.486069 0.05)
(-0.629913 0.516956 0.05)
(-0.668948 0.548991 0.05)
(-0.709433 0.582217 0.05)
(-0.751423 0.616677 0.05)
(-0.173964 0.124661 0.05)
(-0.196847 0.141059 0.05)
(-0.220584 0.158068 0.05)
(-0.245205 0.175711 0.05)
(-0.270743 0.194012 0.05)
(-0.297231 0.212993 0.05)
(-0.324705 0.23268 0.05)
(-0.3532 0.2531 0.05)
(-0.382755 0.274279 0.05)
(-0.413409 0.296245 0.05)
(-0.445203 0.319028 0.05)
(-0.478178 0.342658 0.05)
(-0.512379 0.367166 0.05)
(-0.547851 0.392585 0.05)
(-0.584642 0.418948 0.05)
(-0.622799 0.446292 0.05)
(-0.662375 0.474651 0.05)
(-0.703421 0.504065 0.05)
(-0.745993 0.534571 0.05)
(-0.790147 0.566211 0.05)
(-0.181744 0.113016 0.05)
(-0.205651 0.127882 0.05)
(-0.23045 0.143303 0.05)
(-0.256172 0.159298 0.05)
(-0.282852 0.175889 0.05)
(-0.310525 0.193097 0.05)
(-0.339228 0.210945 0.05)
(-0.368998 0.229457 0.05)
(-0.399875 0.248658 0.05)
(-0.4319 0.268572 0.05)
(-0.465115 0.289227 0.05)
(-0.499565 0.31065 0.05)
(-0.535296 0.332868 0.05)
(-0.572355 0.355913 0.05)
(-0.61079 0.379814 0.05)
(-0.650655 0.404603 0.05)
(-0.692001 0.430314 0.05)
(-0.734883 0.45698 0.05)
(-0.779359 0.484636 0.05)
(-0.825487 0.513321 0.05)
(-0.188747 0.100887 0.05)
(-0.213575 0.114158 0.05)
(-0.239329 0.127924 0.05)
(-0.266042 0.142202 0.05)
(-0.29375 0.157013 0.05)
(-0.322489 0.172374 0.05)
(-0.352298 0.188307 0.05)
(-0.383215 0.204833 0.05)
(-0.415281 0.221973 0.05)
(-0.44854 0.23975 0.05)
(-0.483036 0.258188 0.05)
(-0.518813 0.277311 0.05)
(-0.55592 0.297146 0.05)
(-0.594407 0.317717 0.05)
(-0.634324 0.339053 0.05)
(-0.675724 0.361182 0.05)
(-0.718663 0.384133 0.05)
(-0.763197 0.407937 0.05)
(-0.809387 0.432626 0.05)
(-0.857292 0.458232 0.05)
(-0.194941 0.0883266 0.05)
(-0.220584 0.0999452 0.05)
(-0.247183 0.111997 0.05)
(-0.274773 0.124498 0.05)
(-0.30339 0.137464 0.05)
(-0.333073 0.150913 0.05)
(-0.363859 0.164863 0.05)
(-0.395791 0.179331 0.05)
(-0.42891 0.194337 0.05)
(-0.46326 0.209901 0.05)
(-0.498888 0.226043 0.05)
(-0.535839 0.242786 0.05)
(-0.574164 0.260151 0.05)
(-0.613914 0.278161 0.05)
(-0.655141 0.29684 0.05)
(-0.6979 0.316214 0.05)
(-0.742248 0.336308 0.05)
(-0.788244 0.357149 0.05)
(-0.835949 0.378763 0.05)
(-0.885427 0.401182 0.05)
(-0.2003 0.0753877 0.05)
(-0.226648 0.0853043 0.05)
(-0.253979 0.0955908 0.05)
(-0.282327 0.10626 0.05)
(-0.311731 0.117327 0.05)
(-0.34223 0.128806 0.05)
(-0.373863 0.140712 0.05)
(-0.406672 0.153061 0.05)
(-0.440702 0.165868 0.05)
(-0.475997 0.179152 0.05)
(-0.512603 0.19293 0.05)
(-0.550571 0.20722 0.05)
(-0.58995 0.222041 0.05)
(-0.630792 0.237413 0.05)
(-0.673152 0.253357 0.05)
(-0.717087 0.269892 0.05)
(-0.762654 0.287043 0.05)
(-0.809915 0.30483 0.05)
(-0.858931 0.323279 0.05)
(-0.90977 0.342413 0.05)
(-0.204802 0.0621261 0.05)
(-0.231742 0.0702982 0.05)
(-0.259687 0.0787751 0.05)
(-0.288673 0.0875679 0.05)
(-0.318738 0.096688 0.05)
(-0.349921 0.106148 0.05)
(-0.382265 0.115959 0.05)
(-0.415812 0.126135 0.05)
(-0.450607 0.13669 0.05)
(-0.486695 0.147637 0.05)
(-0.524124 0.158991 0.05)
(-0.562945 0.170768 0.05)
(-0.603209 0.182981 0.05)
(-0.644969 0.195649 0.05)
(-0.688281 0.208788 0.05)
(-0.733203 0.222415 0.05)
(-0.779795 0.236548 0.05)
(-0.828117 0.251207 0.05)
(-0.878236 0.26641 0.05)
(-0.930217 0.282178 0.05)
(-0.208427 0.0485983 0.05)
(-0.235844 0.054991 0.05)
(-0.264283 0.0616221 0.05)
(-0.293782 0.0685003 0.05)
(-0.324379 0.0756345 0.05)
(-0.356115 0.0830343 0.05)
(-0.389031 0.0907093 0.05)
(-0.423172 0.0986698 0.05)
(-0.458582 0.106926 0.05)
(-0.495308 0.11549 0.05)
(-0.5334 0.124372 0.05)
(-0.572908 0.133584 0.05)
(-0.613885 0.143138 0.05)
(-0.656384 0.153047 0.05)
(-0.700463 0.163325 0.05)
(-0.74618 0.173985 0.05)
(-0.793596 0.185041 0.05)
(-0.842774 0.196507 0.05)
(-0.893779 0.2084 0.05)
(-0.94668 0.220735 0.05)
(-0.211159 0.0348625 0.05)
(-0.238935 0.0394484 0.05)
(-0.267747 0.0442053 0.05)
(-0.297633 0.0491394 0.05)
(-0.328631 0.0542572 0.05)
(-0.360783 0.0595655 0.05)
(-0.394131 0.0650712 0.05)
(-0.428719 0.0707818 0.05)
(-0.464593 0.0767047 0.05)
(-0.501801 0.0828477 0.05)
(-0.540393 0.0892192 0.05)
(-0.580419 0.0958275 0.05)
(-0.621932 0.102681 0.05)
(-0.664989 0.10979 0.05)
(-0.709645 0.117163 0.05)
(-0.755962 0.12481 0.05)
(-0.803999 0.132741 0.05)
(-0.853822 0.140967 0.05)
(-0.905496 0.149498 0.05)
(-0.95909 0.158346 0.05)
(-0.212987 0.0209774 0.05)
(-0.241004 0.0237368 0.05)
(-0.270065 0.0265991 0.05)
(-0.300209 0.029568 0.05)
(-0.331476 0.0326475 0.05)
(-0.363906 0.0358416 0.05)
(-0.397543 0.0391545 0.05)
(-0.43243 0.0425907 0.05)
(-0.468615 0.0461546 0.05)
(-0.506145 0.049851 0.05)
(-0.545071 0.0536848 0.05)
(-0.585443 0.0576611 0.05)
(-0.627316 0.0617853 0.05)
(-0.670745 0.0660627 0.05)
(-0.715789 0.070499 0.05)
(-0.762506 0.0751003 0.05)
(-0.810959 0.0798725 0.05)
(-0.861213 0.0848221 0.05)
(-0.913335 0.0899556 0.05)
(-0.967393 0.0952799 0.05)
(-0.213903 0.00700246 0.05)
(-0.24204 0.00792358 0.05)
(-0.271227 0.00887904 0.05)
(-0.301501 0.0098701 0.05)
(-0.332902 0.0108981 0.05)
(-0.365471 0.0119643 0.05)
(-0.399252 0.0130702 0.05)
(-0.43429 0.0142172 0.05)
(-0.470631 0.0154068 0.05)
(-0.508322 0.0166407 0.05)
(-0.547415 0.0179205 0.05)
(-0.587961 0.0192479 0.05)
(-0.630014 0.0206245 0.05)
(-0.67363 0.0220524 0.05)
(-0.718867 0.0235333 0.05)
(-0.765785 0.0250692 0.05)
(-0.814447 0.0266622 0.05)
(-0.864917 0.0283144 0.05)
(-0.917263 0.0300281 0.05)
(-0.971553 0.0318054 0.05)
(-0.213903 -0.00700246 0.05)
(-0.24204 -0.00792358 0.05)
(-0.271227 -0.00887904 0.05)
(-0.301501 -0.0098701 0.05)
(-0.332902 -0.0108981 0.05)
(-0.365471 -0.0119643 0.05)
(-0.399252 -0.0130702 0.05)
(-0.43429 -0.0142172 0.05)
(-0.470631 -0.0154068 0.05)
(-0.508322 -0.0166407 0.05)
(-0.547415 -0.0179205 0.05)
(-0.587961 -0.0192479 0.05)
(-0.630014 -0.0206245 0.05)
(-0.67363 -0.0220524 0.05)
(-0.718867 -0.0235333 0.05)
(-0.765785 -0.0250692 0.05)
(-0.814447 -0.0266622 0.05)
(-0.864917 -0.0283144 0.05)
(-0.917263 -0.0300281 0.05)
(-0.971553 -0.0318054 0.05)
(-0.212987 -0.0209774 0.05)
(-0.241004 -0.0237368 0.05)
(-0.270065 -0.0265991 0.05)
(-0.300209 -0.029568 0.05)
(-0.331476 -0.0326475 0.05)
(-0.363906 -0.0358416 0.05)
(-0.397543 -0.0391545 0.05)
(-0.43243 -0.0425907 0.05)
(-0.468615 -0.0461546 0.05)
(-0.506145 -0.049851 0.05)
(-0.545071 -0.0536848 0.05)
(-0.585443 -0.0576611 0.05)
(-0.627316 -0.0617853 0.05)
(-0.670745 -0.0660627 0.05)
(-0.715789 -0.070499 0.05)
(-0.762506 -0.0751003 0.05)
(-0.810959 -0.0798725 0.05)
(-0.861213 -0.0848221 0.05)
(-0.913335 -0.0899556 0.05)
(-0.967393 -0.0952799 0.05)
(-0.211159 -0.0348625 0.05)
(-0.238935 -0.0394484 0.05)
(-0.267747 -0.0442053 0.05)
(-0.297633 -0.0491394 0.05)
(-0.328631 -0.0542572 0.05)
(-0.360783 -0.0595655 0.05)
(-0.394131 -0.0650712 0.05)
(-0.428719 -0.0707818 0.05)
(-0.464593 -0.0767047 0.05)
(-0.501801 -0.0828477 0.05)
(-0.540393 -0.0892192 0.05)
(-0.580419 -0.0958275 0.05)
(-0.621932 -0.102681 0.05)
(-0.664989 -0.10979 0.05)
(-0.709645 -0.117163 0.05)
(-0.755962 -0.12481 0.05)
(-0.803999 -0.132741 0.05)
(-0.853822 -0.140967 0.05)
(-0.905496 -0.149498 0.05)
(-0.95909 -0.158346 0.05)
(-0.208427 -0.0485983 0.05)
(-0.235844 -0.054991 0.05)
(-0.264283 -0.0616221 0.05)
(-0.293782 -0.0685003 0.05)
(-0.324379 -0.0756345 0.05)
(-0.356115 -0.0830343 0.05)
(-0.389031 -0.0907093 0.05)
(-0.423172 -0.0986698 0.05)
(-0.458582 -0.106926 0.05)
(-0.495308 -0.11549 0.05)
(-0.5334 -0.124372 0.05)
(-0.572908 -0.133584 0.05)
(-0.613885 -0.143138 0.05)
(-0.656384 -0.153047 0.05)
(-0.700463 -0.163325 0.05)
(-0.74618 -0.173985 0.05)
(-0.793596 -0.185041 0.05)
(-0.842774 -0.196507 0.05)
(-0.893779 -0.2084 0.05)
(-0.94668 -0.220735 0.05)
(-0.204802 -0.0621261 0.05)
(-0.231742 -0.0702982 0.05)
(-0.259687 -0.0787751 0.05)
(-0.288673 -0.0875679 0.05)
(-0.318738 -0.096688 0.05)
(-0.349921 -0.106148 0.05)
(-0.382265 -0.115959 0.05)
(-0.415812 -0.126135 0.05)
(-0.450607 -0.13669 0.05)
(-0.486695 -0.147637 0.05)
(-0.524124 -0.158991 0.05)
(-0.562945 -0.170768 0.05)
(-0.603209 -0.182981 0.05)
(-0.644969 -0.195649 0.05)
(-0.688281 -0.208788 0.05)
(-0.733203 -0.222415 0.05)
(-0.779795 -0.236548 0.05)
(-0.828117 -0.251207 0.05)
(-0.878236 -0.26641 0.05)
(-0.930217 -0.282178 0.05)
(-0.2003 -0.0753877 0.05)
(-0.226648 -0.0853043 0.05)
(-0.253979 -0.0955908 0.05)
(-0.282327 -0.10626 0.05)
(-0.311731 -0.117327 0.05)
(-0.34223 -0.128806 0.05)
(-0.373863 -0.140712 0.05)
(-0.406672 -0.153061 0.05)
(-0.440702 -0.165868 0.05)
(-0.475997 -0.179152 0.05)
(-0.512603 -0.19293 0.05)
(-0.550571 -0.20722 0.05)
(-0.58995 -0.222041 0.05)
(-0.630792 -0.237413 0.05)
(-0.673152 -0.253357 0.05)
(-0.717087 -0.269892 0.05)
(-0.762654 -0.287043 0.05)
(-0.809915 -0.30483 0.05)
(-0.858931 -0.323279 0.05)
(-0.90977 -0.342413 0.05)
(-0.194941 -0.0883266 0.05)
(-0.220584 -0.0999452 0.05)
(-0.247183 -0.111997 0.05)
(-0.274773 -0.124498 0.05)
(-0.30339 -0.137464 0.05)
(-0.333073 -0.150913 0.05)
(-0.363859 -0.164863 0.05)
(-0.395791 -0.179331 0.05)
(-0.42891 -0.194337 0.05)
(-0.46326 -0.209901 0.05)
(-0.498888 -0.226043 0.05)
(-0.535839 -0.242786 0.05)
(-0.574164 -0.260151 0.05)
(-0.613914 -0.278161 0.05)
(-0.655141 -0.29684 0.05)
(-0.6979 -0.316214 0.05)
(-0.742248 -0.336308 0.05)
(-0.788244 -0.357149 0.05)
(-0.835949 -0.378763 0.05)
(-0.885427 -0.401182 0.05)
(-0.188747 -0.100887 0.05)
(-0.213575 -0.114158 0.05)
(-0.239329 -0.127924 0.05)
(-0.266042 -0.142202 0.05)
(-0.29375 -0.157013 0.05)
(-0.322489 -0.172374 0.05)
(-0.352298 -0.188307 0.05)
(-0.383215 -0.204833 0.05)
(-0.415281 -0.221973 0.05)
(-0.44854 -0.23975 0.05)
(-0.483036 -0.258188 0.05)
(-0.518813 -0.277311 0.05)
(-0.55592 -0.297146 0.05)
(-0.594407 -0.317717 0.05)
(-0.634324 -0.339053 0.05)
(-0.675724 -0.361182 0.05)
(-0.718663 -0.384133 0.05)
(-0.763197 -0.407937 0.05)
(-0.809387 -0.432626 0.05)
(-0.857292 -0.458232 0.05)
(-0.181744 -0.113016 0.05)
(-0.205651 -0.127882 0.05)
(-0.23045 -0.143303 0.05)
(-0.256172 -0.159298 0.05)
(-0.282852 -0.175889 0.05)
(-0.310525 -0.193097 0.05)
(-0.339228 -0.210945 0.05)
(-0.368998 -0.229457 0.05)