/*--------------------------------*- C++ -*----------------------------------*\
| =========                 |                                                 |
| \\      /  F ield         | foam-extend: Open Source CFD                    |
|  \\    /   O peration     | Version:  3.0                                   |
|   \\  /    A nd           | Web:         http://www.extend-project.de       |
|    \\/     M anipulation  |                                                 |
\*---------------------------------------------------------------------------*/
FoamFile
{
    version     2.0;
    format      ascii;
    class       volScalarField;
    location    "constant/polyMesh";
    object      Volumes;
}
// * * * * * * * * * * * * * * * * * * * * * * * * * * * * * * * * * * * * * //

dimensions      [0 3 0 0 0 0 0];

internalField   nonuniform List<scalar> 
1920
(
3.86949e-05
4.54218e-05
5.2799e-05
6.0881e-05
6.97265e-05
7.9399e-05
8.99669e-05
0.000101504
0.00011409
0.000127811
0.000142759
0.000159035
0.000176746
0.000196008
0.000216947
0.000239697
0.000264405
0.000291227
0.000320331
0.000351902
3.86949e-05
4.54218e-05
5.2799e-05
6.0881e-05
6.97265e-05
7.9399e-05
8.99669e-05
0.000101504
0.00011409
0.000127811
0.000142759
0.000159035
0.000176746
0.000196008
0.000216947
0.000239697
0.000264405
0.000291227
0.000320331
0.000351902
3.86949e-05
4.54218e-05
5.2799e-05
6.0881e-05
6.97265e-05
7.9399e-05
8.99669e-05
0.000101504
0.00011409
0.000127811
0.000142759
0.000159035
0.000176746
0.000196008
0.000216947
0.000239697
0.000264405
0.000291227
0.000320331
0.000351902
3.86949e-05
4.54218e-05
5.2799e-05
6.0881e-05
6.97265e-05
7.9399e-05
8.99669e-05
0.000101504
0.00011409
0.000127811
0.000142759
0.000159035
0.000176746
0.000196008
0.000216947
0.000239697
0.000264405
0.000291227
0.000320331
0.000351902
3.86949e-05
4.54218e-05
5.2799e-05
6.0881e-05
6.97265e-05
7.9399e-05
8.99669e-05
0.000101504
0.00011409
0.000127811
0.000142759
0.000159035
0.000176746
0.000196008
0.000216947
0.000239697
0.000264405
0.000291227
0.000320331
0.000351902
3.86949e-05
4.54218e-05
5.2799e-05
6.0881e-05
6.97265e-05
7.9399e-05
8.99669e-05
0.000101504
0.00011409
0.000127811
0.000142759
0.000159035
0.000176746
0.000196008
0.000216947
0.000239697
0.000264405
0.000291227
0.000320331
0.000351902
3.86949e-05
4.54218e-05
5.2799e-05
6.0881e-05
6.97265e-05
7.9399e-05
8.99669e-05
0.000101504
0.00011409
0.000127811
0.000142759
0.000159035
0.000176746
0.000196008
0.000216947
0.000239697
0.000264405
0.000291227
0.000320331
0.000351902
3.86949e-05
4.54218e-05
5.2799e-05
6.0881e-05
6.97265e-05
7.9399e-05
8.99669e-05
0.000101504
0.00011409
0.000127811
0.000142759
0.000159035
0.000176746
0.000196008
0.000216947
0.000239697
0.000264405
0.000291227
0.000320331
0.000351902
3.86949e-05
4.54218e-05
5.2799e-05
6.0881e-05
6.97265e-05
7.9399e-05
8.99669e-05
0.000101504
0.00011409
0.000127811
0.000142759
0.000159035
0.000176746
0.000196008
0.000216947
0.000239697
0.000264405
0.000291227
0.000320331
0.000351902
3.86949e-05
4.54218e-05
5.2799e-05
6.0881e-05
6.97265e-05
7.9399e-05
8.99669e-05
0.000101504
0.00011409
0.000127811
0.000142759
0.000159035
0.000176746
0.000196008
0.000216947
0.000239697
0.000264405
0.000291227
0.000320331
0.000351902
3.86949e-05
4.54218e-05
5.2799e-05
6.0881e-05
6.97265e-05
7.9399e-05
8.99669e-05
0.000101504
0.00011409
0.000127811
0.000142759
0.000159035
0.000176746
0.000196008
0.000216947
0.000239697
0.000264405
0.000291227
0.000320331
0.000351902
3.86949e-05
4.54218e-05
5.2799e-05
6.0881e-05
6.97265e-05
7.9399e-05
8.99669e-05
0.000101504
0.00011409
0.000127811
0.000142759
0.000159035
0.000176746
0.000196008
0.000216947
0.000239697
0.000264405
0.000291227
0.000320331
0.000351902
3.86949e-05
4.54218e-05
5.2799e-05
6.0881e-05
6.97265e-05
7.9399e-05
8.99669e-05
0.000101504
0.00011409
0.000127811
0.000142759
0.000159035
0.000176746
0.000196008
0.000216947
0.000239697
0.000264405
0.000291227
0.000320331
0.000351902
3.86949e-05
4.54218e-05
5.2799e-05
6.0881e-05
6.97265e-05
7.9399e-05
8.99669e-05
0.000101504
0.00011409
0.000127811
0.000142759
0.000159035
0.000176746
0.000196008
0.000216947
0.000239697
0.000264405
0.000291227
0.000320331
0.000351902
3.86949e-05
4.54218e-05
5.2799e-05
6.0881e-05
6.97265e-05
7.9399e-05
8.99669e-05
0.000101504
0.00011409
0.000127811
0.000142759
0.000159035
0.000176746
0.000196008
0.000216947
0.000239697
0.000264405
0.000291227
0.000320331
0.000351902
3.86949e-05
4.54218e-05
5.2799e-05
6.0881e-05
6.97265e-05
7.9399e-05
8.99669e-05
0.000101504
0.00011409
0.000127811
0.000142759
0.000159035
0.000176746
0.000196008
0.000216947
0.000239697
0.000264405
0.000291227
0.000320331
0.000351902
3.86949e-05
4.54218e-05
5.2799e-05
6.0881e-05
6.97265e-05
7.9399e-05
8.99669e-05
0.000101504
0.00011409
0.000127811
0.000142759
0.000159035
0.000176746
0.000196008
0.000216947
0.000239697
0.000264405
0.000291227
0.000320331
0.000351902
3.86949e-05
4.54218e-05
5.2799e-05
6.0881e-05
6.97265e-05
7.9399e-05
8.99669e-05
0.000101504
0.00011409
0.000127811
0.000142759
0.000159035
0.000176746
0.000196008
0.000216947
0.000239697
0.000264405
0.000291227
0.000320331
0.000351902
3.86949e-05
4.54218e-05
5.2799e-05
6.0881e-05
6.97265e-05
7.9399e-05
8.99669e-05
0.000101504
0.00011409
0.000127811
0.000142759
0.000159035
0.000176746
0.000196008
0.000216947
0.000239697
0.000264405
0.000291227
0.000320331
0.000351902
3.86949e-05
4.54218e-05
5.2799e-05
6.0881e-05
6.97265e-05
7.9399e-05
8.99669e-05
0.000101504
0.00011409
0.000127811
0.000142759
0.000159035
0.000176746
0.000196008
0.000216947
0.000239697
0.000264405
0.000291227
0.000320331
0.000351902
3.86949e-05
4.54218e-05
5.2799e-05
6.0881e-05
6.97265e-05
7.9399e-05
8.99669e-05
0.000101504
0.00011409
0.000127811
0.000142759
0.000159035
0.000176746
0.000196008
0.000216947
0.000239697
0.000264405
0.000291227
0.000320331
0.000351902
3.86949e-05
4.54218e-05
5.2799e-05
6.0881e-05
6.97265e-05
7.9399e-05
8.99669e-05
0.000101504
0.00011409
0.000127811
0.000142759
0.000159035
0.000176746
0.000196008
0.000216947
0.000239697
0.000264405
0.000291227
0.000320331
0.000351902
3.86949e-05
4.54218e-05
5.2799e-05
6.0881e-05
6.97265e-05
7.9399e-05
8.99669e-05
0.000101504
0.00011409
0.000127811
0.000142759
0.000159035
0.000176746
0.000196008
0.000216947
0.000239697
0.000264405
0.000291227
0.000320331
0.000351902
3.86949e-05
4.54218e-05
5.2799e-05
6.0881e-05
6.97265e-05
7.9399e-05
8.99669e-05
0.000101504
0.00011409
0.000127811
0.000142759
0.000159035
0.000176746
0.000196008
0.000216947
0.000239697
0.000264405
0.000291227
0.000320331
0.000351902
3.86949e-05
4.54218e-05
5.2799e-05
6.0881e-05
6.97265e-05
7.9399e-05
8.99669e-05
0.000101504
0.00011409
0.000127811
0.000142759
0.000159035
0.000176746
0.000196008
0.000216947
0.000239697
0.000264405
0.000291227
0.000320331
0.000351902
3.86949e-05
4.54218e-05
5.2799e-05
6.0881e-05
6.97265e-05
7.9399e-05
8.99669e-05
0.000101504
0.00011409
0.000127811
0.000142759
0.000159035
0.000176746
0.000196008
0.000216947
0.000239697
0.000264405
0.000291227
0.000320331
0.000351902
3.86949e-05
4.54218e-05
5.2799e-05
6.0881e-05
6.97265e-05
7.9399e-05
8.99669e-05
0.000101504
0.00011409
0.000127811
0.000142759
0.000159035
0.000176746
0.000196008
0.000216947
0.000239697
0.000264405
0.000291227
0.000320331
0.000351902
3.86949e-05
4.54218e-05
5.2799e-05
6.0881e-05
6.97265e-05
7.9399e-05
8.99669e-05
0.000101504
0.00011409
0.000127811
0.000142759
0.000159035
0.000176746
0.000196008
0.000216947
0.000239697
0.000264405
0.000291227
0.000320331
0.000351902
3.86949e-05
4.54218e-05
5.2799e-05
6.0881e-05
6.97265e-05
7.9399e-05
8.99669e-05
0.000101504
0.00011409
0.000127811
0.000142759
0.000159035
0.000176746
0.000196008
0.000216947
0.000239697
0.000264405
0.000291227
0.000320331
0.000351902
3.86949e-05
4.54218e-05
5.2799e-05
6.0881e-05
6.97265e-05
7.9399e-05
8.99669e-05
0.000101504
0.00011409
0.000127811
0.000142759
0.000159035
0.000176746
0.000196008
0.000216947
0.000239697
0.000264405
0.000291227
0.000320331
0.000351902
3.86949e-05
4.54218e-05
5.2799e-05
6.0881e-05
6.97265e-05
7.9399e-05
8.99669e-05
0.000101504
0.00011409
0.000127811
0.000142759
0.000159035
0.000176746
0.000196008
0.000216947
0.000239697
0.000264405
0.000291227
0.000320331
0.000351902
3.86949e-05
4.54218e-05
5.2799e-05
6.0881e-05
6.97265e-05
7.9399e-05
8.99669e-05
0.000101504
0.00011409
0.000127811
0.000142759
0.000159035
0.000176746
0.000196008
0.000216947
0.000239697
0.000264405
0.000291227
0.000320331
0.000351902
3.86949e-05
4.54218e-05
5.2799e-05
6.0881e-05
6.97265e-05
7.9399e-05
8.99669e-05
0.000101504
0.00011409
0.000127811
0.000142759
0.000159035
0.000176746
0.000196008
0.000216947
0.000239697
0.000264405
0.000291227
0.000320331
0.000351902
3.86949e-05
4.54218e-05
5.2799e-05
6.0881e-05
6.97265e-05
7.9399e-05
8.99669e-05
0.000101504
0.00011409
0.000127811
0.000142759
0.000159035
0.000176746
0.000196008
0.000216947
0.000239697
0.000264405
0.000291227
0.000320331
0.000351902
3.86949e-05
4.54218e-05
5.2799e-05
6.0881e-05
6.97265e-05
7.9399e-05
8.99669e-05
0.000101504
0.00011409
0.000127811
0.000142759
0.000159035
0.000176746
0.000196008
0.000216947
0.000239697
0.000264405
0.000291227
0.000320331
0.000351902
3.86949e-05
4.54218e-05
5.2799e-05
6.0881e-05
6.97265e-05
7.9399e-05
8.99669e-05
0.000101504
0.00011409
0.000127811
0.000142759
0.000159035
0.000176746
0.000196008
0.000216947
0.000239697
0.000264405
0.000291227
0.000320331
0.000351902
3.86949e-05
4.54218e-05
5.2799e-05
6.0881e-05
6.97265e-05
7.9399e-05
8.99669e-05
0.000101504
0.00011409
0.000127811
0.000142759
0.000159035
0.000176746
0.000196008
0.000216947
0.000239697
0.000264405
0.000291227
0.000320331
0.000351902
3.86949e-05
4.54218e-05
5.2799e-05
6.0881e-05
6.97265e-05
7.9399e-05
8.99669e-05
0.000101504
0.00011409
0.000127811
0.000142759
0.000159035
0.000176746
0.000196008
0.000216947
0.000239697
0.000264405
0.000291227
0.000320331
0.000351902
3.86949e-05
4.54218e-05
5.2799e-05
6.0881e-05
6.97265e-05
7.9399e-05
8.99669e-05
0.000101504
0.00011409
0.000127811
0.000142759
0.000159035
0.000176746
0.000196008
0.000216947
0.000239697
0.000264405
0.000291227
0.000320331
0.000351902
3.86949e-05
4.54218e-05
5.2799e-05
6.0881e-05
6.97265e-05
7.9399e-05
8.99669e-05
0.000101504
0.00011409
0.000127811
0.000142759
0.000159035
0.000176746
0.000196008
0.000216947
0.000239697
0.000264405
0.000291227
0.000320331
0.000351902
3.86949e-05
4.54218e-05
5.2799e-05
6.0881e-05
6.97265e-05
7.9399e-05
8.99669e-05
0.000101504
0.00011409
0.000127811
0.000142759
0.000159035
0.000176746
0.000196008
0.000216947
0.000239697
0.000264405
0.000291227
0.000320331
0.000351902
3.86949e-05
4.54218e-05
5.2799e-05
6.0881e-05
6.97265e-05
7.9399e-05
8.99669e-05
0.000101504
0.00011409
0.000127811
0.000142759
0.000159035
0.000176746
0.000196008
0.000216947
0.000239697
0.000264405
0.000291227
0.000320331
0.000351902
3.86949e-05
4.54218e-05
5.2799e-05
6.0881e-05
6.97265e-05
7.9399e-05
8.99669e-05
0.000101504
0.00011409
0.000127811
0.000142759
0.000159035
0.000176746
0.000196008
0.000216947
0.000239697
0.000264405
0.000291227
0.000320331
0.000351902
3.86949e-05
4.54218e-05
5.2799e-05
6.0881e-05
6.97265e-05
7.9399e-05
8.99669e-05
0.000101504
0.00011409
0.000127811
0.000142759
0.000159035
0.000176746
0.000196008
0.000216947
0.000239697
0.000264405
0.000291227
0.000320331
0.000351902
3.86949e-05
4.54218e-05
5.2799e-05
6.0881e-05
6.97265e-05
7.9399e-05
8.99669e-05
0.000101504
0.00011409
0.000127811
0.000142759
0.000159035
0.000176746
0.000196008
0.000216947
0.000239697
0.000264405
0.000291227
0.000320331
0.000351902
3.86949e-05
4.54218e-05
5.2799e-05
6.0881e-05
6.97265e-05
7.9399e-05
8.99669e-05
0.000101504
0.00011409
0.000127811
0.000142759
0.000159035
0.000176746
0.000196008
0.000216947
0.000239697
0.000264405
0.000291227
0.000320331
0.000351902
3.86949e-05
4.54218e-05
5.2799e-05
6.0881e-05
6.97265e-05
7.9399e-05
8.99669e-05
0.000101504
0.00011409
0.000127811
0.000142759
0.000159035
0.000176746
0.000196008
0.000216947
0.000239697
0.000264405
0.000291227
0.000320331
0.000351902
3.86949e-05
4.54218e-05
5.2799e-05
6.0881e-05
6.97265e-05
7.9399e-05
8.99669e-05
0.000101504
0.00011409
0.000127811
0.000142759
0.000159035
0.000176746
0.000196008
0.000216947
0.000239697
0.000264405
0.000291227
0.000320331
0.000351902
3.86949e-05
4.54218e-05
5.2799e-05
6.0881e-05
6.97265e-05
7.9399e-05
8.99669e-05
0.000101504
0.00011409
0.000127811
0.000142759
0.000159035
0.000176746
0.000196008
0.000216947
0.000239697
0.000264405
0.000291227
0.000320331
0.000351902
3.86949e-05
4.54218e-05
5.2799e-05
6.0881e-05
6.97265e-05
7.9399e-05
8.99669e-05
0.000101504
0.00011409
0.000127811
0.000142759
0.000159035
0.000176746
0.000196008
0.000216947
0.000239697
0.000264405
0.000291227
0.000320331
0.000351902
3.86949e-05
4.54218e-05
5.2799e-05
6.0881e-05
6.97265e-05
7.9399e-05
8.99669e-05
0.000101504
0.00011409
0.000127811
0.000142759
0.000159035
0.000176746
0.000196008
0.000216947
0.000239697
0.000264405
0.000291227
0.000320331
0.000351902
3.86949e-05
4.54218e-05
5.2799e-05
6.0881e-05
6.97265e-05
7.9399e-05
8.99669e-05
0.000101504
0.00011409
0.000127811
0.000142759
0.000159035
0.000176746
0.000196008
0.000216947
0.000239697
0.000264405
0.000291227
0.000320331
0.000351902
3.86949e-05
4.54218e-05
5.2799e-05
6.0881e-05
6.97265e-05
7.9399e-05
8.99669e-05
0.000101504
0.00011409
0.000127811
0.000142759
0.000159035
0.000176746
0.000196008
0.000216947
0.000239697
0.000264405
0.000291227
0.000320331
0.000351902
3.86949e-05
4.54218e-05
5.2799e-05
6.0881e-05
6.97265e-05
7.9399e-05
8.99669e-05
0.000101504
0.00011409
0.000127811
0.000142759
0.000159035
0.000176746
0.000196008
0.000216947
0.000239697
0.000264405
0.000291227
0.000320331
0.000351902
3.86949e-05
4.54218e-05
5.2799e-05
6.0881e-05
6.97265e-05
7.9399e-05
8.99669e-05
0.000101504
0.00011409
0.000127811
0.000142759
0.000159035
0.000176746
0.000196008
0.000216947
0.000239697
0.000264405
0.000291227
0.000320331
0.000351902
3.86949e-05
4.54218e-05
5.2799e-05
6.0881e-05
6.97265e-05
7.9399e-05
8.99669e-05
0.000101504
0.00011409
0.000127811
0.000142759
0.000159035
0.000176746
0.000196008
0.000216947
0.000239697
0.000264405
0.000291227
0.000320331
0.000351902
3.86949e-05
4.54218e-05
5.2799e-05
6.0881e-05
6.97265e-05
7.9399e-05
8.99669e-05
0.000101504
0.00011409
0.000127811
0.000142759
0.000159035
0.000176746
0.000196008
0.000216947
0.000239697
0.000264405
0.000291227
0.000320331
0.000351902
3.86949e-05
4.54218e-05
5.2799e-05
6.0881e-05
6.97265e-05
7.9399e-05
8.99669e-05
0.000101504
0.00011409
0.000127811
0.000142759
0.000159035
0.000176746
0.000196008
0.000216947
0.000239697
0.000264405
0.000291227
0.000320331
0.000351902
3.86949e-05
4.54218e-05
5.2799e-05
6.0881e-05
6.97265e-05
7.9399e-05
8.99669e-05
0.000101504
0.00011409
0.000127811
0.000142759
0.000159035
0.000176746
0.000196008
0.000216947
0.000239697
0.000264405
0.000291227
0.000320331
0.000351902
3.86949e-05
4.54218e-05
5.2799e-05
6.0881e-05
6.97265e-05
7.9399e-05
8.99669e-05
0.000101504
0.00011409
0.000127811
0.000142759
0.000159035
0.000176746
0.000196008
0.000216947
0.000239697
0.000264405
0.000291227
0.000320331
0.000351902
3.86949e-05
4.54218e-05
5.2799e-05
6.0881e-05
6.97265e-05
7.9399e-05
8.99669e-05
0.000101504
0.00011409
0.000127811
0.000142759
0.000159035
0.000176746
0.000196008
0.000216947
0.000239697
0.000264405
0.000291227
0.000320331
0.000351902
3.86949e-05
4.54218e-05
5.2799e-05
6.0881e-05
6.97265e-05
7.9399e-05
8.99669e-05
0.000101504
0.00011409
0.000127811
0.000142759
0.000159035
0.000176746
0.000196008
0.000216947
0.000239697
0.000264405
0.000291227
0.000320331
0.000351902
3.86949e-05
4.54218e-05
5.2799e-05
6.0881e-05
6.97265e-05
7.9399e-05
8.99669e-05
0.000101504
0.00011409
0.000127811
0.000142759
0.000159035
0.000176746
0.000196008
0.000216947
0.000239697
0.000264405
0.000291227
0.000320331
0.000351902
3.86949e-05
4.54218e-05
5.2799e-05
6.0881e-05
6.97265e-05
7.9399e-05
8.99669e-05
0.000101504
0.00011409
0.000127811
0.000142759
0.000159035
0.000176746
0.000196008
0.000216947
0.000239697
0.000264405
0.000291227
0.000320331
0.000351902
3.86949e-05
4.54218e-05
5.2799e-05
6.0881e-05
6.97265e-05
7.9399e-05
8.99669e-05
0.000101504
0.00011409
0.000127811
0.000142759
0.000159035
0.000176746
0.000196008
0.000216947
0.000239697
0.000264405
0.000291227
0.000320331
0.000351902
3.86949e-05
4.54218e-05
5.2799e-05
6.0881e-05
6.97265e-05
7.9399e-05
8.99669e-05
0.000101504
0.00011409
0.000127811
0.000142759
0.000159035
0.000176746
0.000196008
0.000216947
0.000239697
0.000264405
0.000291227
0.000320331
0.000351902
3.86949e-05
4.54218e-05
5.2799e-05
6.0881e-05
6.97265e-05
7.9399e-05
8.99669e-05
0.000101504
0.00011409
0.000127811
0.000142759
0.000159035
0.000176746
0.000196008
0.000216947
0.000239697
0.000264405
0.000291227
0.000320331
0.000351902
3.86949e-05
4.54218e-05
5.2799e-05
6.0881e-05
6.97265e-05
7.9399e-05
8.99669e-05
0.000101504
0.00011409
0.000127811
0.000142759
0.000159035
0.000176746
0.000196008
0.000216947
0.000239697
0.000264405
0.000291227
0.000320331
0.000351902
3.86949e-05
4.54218e-05
5.2799e-05
6.0881e-05
6.97265e-05
7.9399e-05
8.99669e-05
0.000101504
0.00011409
0.000127811
0.000142759
0.000159035
0.000176746
0.000196008
0.000216947
0.000239697
0.000264405
0.000291227
0.000320331
0.000351902
3.86949e-05
4.54218e-05
5.2799e-05
6.0881e-05
6.97265e-05
7.9399e-05
8.99669e-05
0.000101504
0.00011409
0.000127811
0.000142759
0.000159035
0.000176746
0.000196008
0.000216947
0.000239697
0.000264405
0.000291227
0.000320331
0.000351902
3.86949e-05
4.54218e-05
5.2799e-05
6.0881e-05
6.97265e-05
7.9399e-05
8.99669e-05
0.000101504
0.00011409
0.000127811
0.000142759
0.000159035
0.000176746
0.000196008
0.000216947
0.000239697
0.000264405
0.000291227
0.000320331
0.000351902
3.86949e-05
4.54218e-05
5.2799e-05
6.0881e-05
6.97265e-05
7.9399e-05
8.99669e-05
0.000101504
0.00011409
0.000127811
0.000142759
0.000159035
0.000176746
0.000196008
0.000216947
0.000239697
0.000264405
0.000291227
0.000320331
0.000351902
3.86949e-05
4.54218e-05
5.2799e-05
6.0881e-05
6.97265e-05
7.9399e-05
8.99669e-05
0.000101504
0.00011409
0.000127811
0.000142759
0.000159035
0.000176746
0.000196008
0.000216947
0.000239697
0.000264405
0.000291227
0.000320331
0.000351902
3.86949e-05
4.54218e-05
5.2799e-05
6.0881e-05
6.97265e-05
7.9399e-05
8.99669e-05
0.000101504
0.00011409
0.000127811
0.000142759
0.000159035
0.000176746
0.000196008
0.000216947
0.000239697
0.000264405
0.000291227
0.000320331
0.000351902
3.86949e-05
4.54218e-05
5.2799e-05
6.0881e-05
6.97265e-05
7.9399e-05
8.99669e-05
0.000101504
0.00011409
0.000127811
0.000142759
0.000159035
0.000176746
0.000196008
0.000216947
0.000239697
0.000264405
0.000291227
0.000320331
0.000351902
3.86949e-05
4.54218e-05
5.2799e-05
6.0881e-05
6.97265e-05
7.9399e-05
8.99669e-05
0.000101504
0.00011409
0.000127811
0.000142759
0.000159035
0.000176746
0.000196008
0.000216947
0.000239697
0.000264405
0.000291227
0.000320331
0.000351902
3.86949e-05
4.54218e-05
5.2799e-05
6.0881e-05
6.97265e-05
7.9399e-05
8.99669e-05
0.000101504
0.00011409
0.000127811
0.000142759
0.000159035
0.000176746
0.000196008
0.000216947
0.000239697
0.000264405
0.000291227
0.000320331
0.000351902
3.86949e-05
4.54218e-05
5.2799e-05
6.0881e-05
6.97265e-05
7.9399e-05
8.99669e-05
0.000101504
0.00011409
0.000127811
0.000142759
0.000159035
0.000176746
0.000196008
0.000216947
0.000239697
0.000264405
0.000291227
0.000320331
0.000351902
3.86949e-05
4.54218e-05
5.2799e-05
6.0881e-05
6.97265e-05
7.9399e-05
8.99669e-05
0.000101504
0.00011409
0.000127811
0.000142759
0.000159035
0.000176746
0.000196008
0.000216947
0.000239697
0.000264405
0.000291227
0.000320331
0.000351902
3.86949e-05
4.54218e-05
5.2799e-05
6.0881e-05
6.97265e-05
7.9399e-05
8.99669e-05
0.000101504
0.00011409
0.000127811
0.000142759
0.000159035
0.000176746
0.000196008
0.000216947
0.000239697
0.000264405
0.000291227
0.000320331
0.000351902
3.86949e-05
4.54218e-05
5.2799e-05
6.0881e-05
6.97265e-05
7.9399e-05
8.99669e-05
0.000101504
0.00011409
0.000127811
0.000142759
0.000159035
0.000176746
0.000196008
0.000216947
0.000239697
0.000264405
0.000291227
0.000320331
0.000351902
3.86949e-05
4.54218e-05
5.2799e-05
6.0881e-05
6.97265e-05
7.9399e-05
8.99669e-05
0.000101504
0.00011409
0.000127811
0.000142759
0.000159035
0.000176746
0.000196008
0.000216947
0.000239697
0.000264405
0.000291227
0.000320331
0.000351902
3.86949e-05
4.54218e-05
5.2799e-05
6.0881e-05
6.97265e-05
7.9399e-05
8.99669e-05
0.000101504
0.00011409
0.000127811
0.000142759
0.000159035
0.000176746
0.000196008
0.000216947
0.000239697
0.000264405
0.000291227
0.000320331
0.000351902
3.86949e-05
4.54218e-05
5.2799e-05
6.0881e-05
6.97265e-05
7.9399e-05
8.99669e-05
0.000101504
0.00011409
0.000127811
0.000142759
0.000159035
0.000176746
0.000196008
0.000216947
0.000239697
0.000264405
0.000291227
0.000320331
0.000351902
3.86949e-05
4.54218e-05
5.2799e-05
6.0881e-05
6.97265e-05
7.9399e-05
8.99669e-05
0.000101504
0.00011409
0.000127811
0.000142759
0.000159035
0.000176746
0.000196008
0.000216947
0.000239697
0.000264405
0.000291227
0.000320331
0.000351902
3.86949e-05
4.54218e-05
5.2799e-05
6.0881e-05
6.97265e-05
7.9399e-05
8.99669e-05
0.000101504
0.00011409
0.000127811
0.000142759
0.000159035
0.000176746
0.000196008
0.000216947
0.000239697
0.000264405
0.000291227
0.000320331
0.000351902
3.86949e-05
4.54218e-05
5.2799e-05
6.0881e-05
6.97265e-05
7.9399e-05
8.99669e-05
0.000101504
0.00011409
0.000127811
0.000142759
0.000159035
0.000176746
0.000196008
0.000216947
0.000239697
0.000264405
0.000291227
0.000320331
0.000351902
3.86949e-05
4.54218e-05
5.2799e-05
6.0881e-05
6.97265e-05
7.9399e-05
8.99669e-05
0.000101504
0.00011409
0.000127811
0.000142759
0.000159035
0.000176746
0.000196008
0.000216947
0.000239697
0.000264405
0.000291227
0.000320331
0.000351902
3.86949e-05
4.54218e-05
5.2799e-05
6.0881e-05
6.97265e-05
7.9399e-05
8.99669e-05
0.000101504
0.00011409
0.000127811
0.000142759
0.000159035
0.000176746
0.000196008
0.000216947
0.000239697
0.000264405
0.000291227
0.000320331
0.000351902
3.86949e-05
4.54218e-05
5.2799e-05
6.0881e-05
6.97265e-05
7.9399e-05
8.99669e-05
0.000101504
0.00011409
0.000127811
0.000142759
0.000159035
0.000176746
0.000196008
0.000216947
0.000239697
0.000264405
0.000291227
0.000320331
0.000351902
3.86949e-05
4.54218e-05
5.2799e-05
6.0881e-05
6.97265e-05
7.9399e-05
8.99669e-05
0.000101504
0.00011409
0.000127811
0.000142759
0.000159035
0.000176746
0.000196008
0.000216947
0.000239697
0.000264405
0.000291227
0.000320331
0.000351902
3.86949e-05
4.54218e-05
5.2799e-05
6.0881e-05
6.97265e-05
7.9399e-05
8.99669e-05
0.000101504
0.00011409
0.000127811
0.000142759
0.000159035
0.000176746
0.000196008
0.000216947
0.000239697
0.000264405
0.000291227
0.000320331
0.000351902
3.86949e-05
4.54218e-05
5.2799e-05
6.0881e-05
6.97265e-05
7.9399e-05
8.99669e-05
0.000101504
0.00011409
0.000127811
0.000142759
0.000159035
0.000176746
0.000196008
0.000216947
0.000239697
0.000264405
0.000291227
0.000320331
0.000351902
3.86949e-05
4.54218e-05
5.2799e-05
6.0881e-05
6.97265e-05
7.9399e-05
8.99669e-05
0.000101504
0.00011409
0.000127811
0.000142759
0.000159035
0.000176746
0.000196008
0.000216947
0.000239697
0.000264405
0.000291227
0.000320331
0.000351902
3.86949e-05
4.54218e-05
5.2799e-05
6.0881e-05
6.97265e-05
7.9399e-05
8.99669e-05
0.000101504
0.00011409
0.000127811
0.000142759
0.000159035
0.000176746
0.000196008
0.000216947
0.000239697
0.000264405
0.000291227
0.000320331
0.000351902
3.86949e-05
4.54218e-05
5.2799e-05
6.0881e-05
6.97265e-05
7.9399e-05
8.99669e-05
0.000101504
0.00011409
0.000127811
0.000142759
0.000159035
0.000176746
0.000196008
0.000216947
0.000239697
0.000264405
0.000291227
0.000320331
0.000351902
)
;

boundaryField
{
    out
    {
        type            calculated;
        value           uniform 0;
    }
    in
    {
        type            calculated;
        value           uniform 0;
    }
    frontAndBack
    {
        type            empty;
    }
}


// ************************************************************************* //
