/*--------------------------------*- C++ -*----------------------------------*\
| =========                 |                                                 |
| \\      /  F ield         | OpenFOAM: The Open Source CFD Toolbox           |
|  \\    /   O peration     | Version:  2.2.0                                 |
|   \\  /    A nd           | Web:      www.OpenFOAM.org                      |
|    \\/     M anipulation  |                                                 |
\*---------------------------------------------------------------------------*/
FoamFile
{
    version     2.0;
    format      ascii;
    class       dictionary;
    object      blockMeshDict;
}
// * * * * * * * * * * * * * * * * * * * * * * * * * * * * * * * * * * * * * //

convertToMeters 1;

vertices
(
    (0.5 0 		0)				// 0
    (0 	0.5 	0)				// 1
    (0 	2	 	0)				// 2
    (2 	0 		0)				// 3 
    (0.5 0 		0.1)			// 4
    (0 	0.5 	0.1)			// 5
    (0 	2	 	0.1)			// 6 
    (2 	0 		0.1)			// 7
    (-0.5 0		0)				// 8
    (-2 	0 		0)				// 9
    (-0.5 0	 	0.1)			// 10
    (-2 	0 		0.1)			// 11
    (0 	-0.5	0)				// 12
    (0 	-2 	0)				// 13
    (0 	-0.5 	0.1)			// 14
    (0 	-2		0.1)			// 15
);

blocks
(
    hex (0 3 2 1 4 7 6 5) (40 40 1) simpleGrading (1 1 1) 
    hex (1 2 9 8 5 6 11 10) (40 40 1) simpleGrading (1 1 1)
    hex (8 9 13 12 10 11 15 14) (40 40 1) simpleGrading (1 1 1)
    hex (0 12 13 3 4 14 15 7) (40 40 1) simpleGrading (1 1 1)
);

edges
(
    arc 1 0 	(0.353553 		0.353553 		0)
    arc 2 3 	(1.41421356 	1.41421356	 	0)
    arc 4 5 	(0.353553 		0.353553 		0.1)
    arc 6 7 	(1.41421356 	1.41421356 		0.1)
    arc 1 8 	(-0.353553 		0.353553 		0)
    arc 2 9 	(-1.41421356 	1.41421356	 	0)
    arc 5 10 	(-0.353553 		0.353553 		0.1)
    arc 6 11 	(-1.41421356 	1.41421356 		0.1)
    arc 8 12 	(-0.353553 		-0.353553 		0)
    arc 9 13 	(-1.41421356 	-1.41421356	 	0)
    arc 10 14 	(-0.353553 		-0.353553 		0.1)
    arc 11 15 	(-1.41421356 	-1.41421356 	0.1)
    arc 0 12 	(0.353553 		-0.353553 		0)
    arc 3 13 	(1.41421356 	-1.41421356	 	0)
    arc 4 14 	(0.353553 		-0.353553 		0.1)
    arc 7 15 	(1.41421356 	-1.41421356		0.1)
);

boundary
(   
    up
    {
        type patch;
        faces
        (
            (2 3 7 6)
				(9 2 6 11)
//				(13 9 11 15)
//				(3 13 15 7)
        );
    }
    hole
    {
        type patch;
        faces
        (
            (5 4 0 1)
				(10 5 1 8)
//				(14 10 8 12)
//				(0 12 14 4)
        );
    }
    frontAndBack
    {
        type empty;
        faces
        (
            (0 1 2 3)
            (4 5 6 7)
				(1 2 9 8)
				(5 6 11 10)
//				(8 9 13 12)
//				(10 11 15 14)
//				(12 13 3 0)
//				(14 15 7 4)
        );
    }
);

mergePatchPairs
(
);

// ************************************************************************* //
