/*--------------------------------*- C++ -*----------------------------------*\
| =========                 |                                                 |
| \\      /  F ield         | OpenFOAM: The Open Source CFD Toolbox           |
|  \\    /   O peration     | Version:  1.7.1                                 |
|   \\  /    A nd           | Web:      www.OpenFOAM.com                      |
|    \\/     M anipulation  |                                                 |
\*---------------------------------------------------------------------------*/
FoamFile
{
    version     2.0;
    format      ascii;
    class       volVectorField;
    object      s;
}
// * * * * * * * * * * * * * * * * * * * * * * * * * * * * * * * * * * * * * //

dimensions      [0 1 -1 0 0 0 0];

internalField   uniform (0 0 0);

boundaryField
{
    left 
    {
        	type  symmetryPlane;
    }
    down 
    {
        	type  symmetryPlane;
    }
    up
    {
        type            myHeatFlux;
        alpha	         1;
		  Theta_wall		1;
		  value				uniform (0 0 1);
    }
    hole
    {
        type            myHeatFlux;
        alpha	         1;
		  Theta_wall		4;
		  value				uniform (0 0 1);
    }
    frontAndBack
    {
        	type            empty;
    }
}

// ************************************************************************* //
