/*--------------------------------*- C++ -*----------------------------------*\
| =========                 |                                                 |
| \\      /  F ield         | foam-extend: Open Source CFD                    |
|  \\    /   O peration     | Version:  3.0                                   |
|   \\  /    A nd           | Web:         http://www.extend-project.de       |
|    \\/     M anipulation  |                                                 |
\*---------------------------------------------------------------------------*/
FoamFile
{
    version     2.0;
    format      ascii;
    class       volVectorField;
    location    "constant/polyMesh";
    object      Centers;
}
// * * * * * * * * * * * * * * * * * * * * * * * * * * * * * * * * * * * * * //

dimensions      [0 0 0 0 0 0 0];

internalField   nonuniform List<vector> 
2688
(
(0.2115755555 0.005936237412 0.05)
(0.2349658797 0.006592506597 0.05)
(0.259073911 0.007268912705 0.05)
(0.2839211765 0.007966059716 0.05)
(0.3095299763 0.008684573321 0.05)
(0.335923371 0.009425100538 0.05)
(0.3631251826 0.01018830975 0.05)
(0.391160002 0.01097489089 0.05)
(0.4200532018 0.01178555587 0.05)
(0.4498309534 0.01262103898 0.05)
(0.4805202459 0.01348209746 0.05)
(0.5121489071 0.01436951208 0.05)
(0.5447456267 0.01528408782 0.05)
(0.5783399805 0.01622665444 0.05)
(0.6129624556 0.01719806738 0.05)
(0.6486444772 0.01819920833 0.05)
(0.6854184364 0.01923098609 0.05)
(0.7233177192 0.02029433737 0.05)
(0.7623767355 0.02139022765 0.05)
(0.8026309511 0.02251965199 0.05)
(0.8441169185 0.02368363594 0.05)
(0.8868723108 0.02488323652 0.05)
(0.9309359548 0.0261195431 0.05)
(0.9763478669 0.02739367844 0.05)
(0.2109098606 0.01779003463 0.05)
(0.2342265901 0.01975677733 0.05)
(0.2582587687 0.02178386742 0.05)
(0.2830278555 0.02387311499 0.05)
(0.3085560804 0.02602639508 0.05)
(0.3348664318 0.02824564676 0.05)
(0.3619826564 0.03053287304 0.05)
(0.3899292679 0.03289014161 0.05)
(0.418731559 0.03531958591 0.05)
(0.4484156188 0.03782340649 0.05)
(0.4790083514 0.04040387272 0.05)
(0.5105374971 0.04306332446 0.05)
(0.5430316555 0.04580417403 0.05)
(0.576520309 0.04862890828 0.05)
(0.6110338489 0.05154009067 0.05)
(0.6466036017 0.05454036353 0.05)
(0.6832618564 0.05763245047 0.05)
(0.721041894 0.06081915864 0.05)
(0.7599780162 0.0641033814 0.05)
(0.8001055771 0.0674881008 0.05)
(0.8414610144 0.07097639034 0.05)
(0.8840818824 0.07457141769 0.05)
(0.9280068859 0.07827644758 0.05)
(0.9732759153 0.08209484468 0.05)
(0.2095805651 0.02958785783 0.05)
(0.2327503371 0.03285888592 0.05)
(0.2566310487 0.03623028203 0.05)
(0.2812440241 0.03970505659 0.05)
(0.306611353 0.04328632818 0.05)
(0.3327558789 0.04697732172 0.05)
(0.3597011989 0.05078136862 0.05)
(0.3874716721 0.05470190777 0.05)
(0.4160924318 0.05874248744 0.05)
(0.4455894028 0.06290676757 0.05)
(0.4759893195 0.06719852245 0.05)
(0.5073197474 0.07162164368 0.05)
(0.5396091057 0.07618014338 0.05)
(0.5728866912 0.08087815758 0.05)
(0.6071827037 0.08571994976 0.05)
(0.642528272 0.0907099146 0.05)
(0.6789554819 0.09585258185 0.05)
(0.7164974043 0.1011526203 0.05)
(0.755188125 0.1066148422 0.05)
(0.7950627751 0.1122442071 0.05)
(0.8361575626 0.1180458267 0.05)
(0.8785098053 0.1240249696 0.05)
(0.922157964 0.1301870654 0.05)
(0.9671416776 0.1365377102 0.05)
(0.2075918517 0.04129258667 0.05)
(0.2305417653 0.04585760831 0.05)
(0.2541958725 0.05056270277 0.05)
(0.2785752949 0.05541207141 0.05)
(0.3037019129 0.06041006646 0.05)
(0.3295983529 0.06556118866 0.05)
(0.3562879883 0.07087008723 0.05)
(0.383794947 0.07634156149 0.05)
(0.4121441239 0.08198056339 0.05)
(0.4413611976 0.08779220069 0.05)
(0.471472649 0.09378174076 0.05)
(0.502505782 0.09995461469 0.05)
(0.5344887461 0.1063164218 0.05)
(0.56745056 0.1128729343 0.05)
(0.6014211371 0.1196301022 0.05)
(0.6364313107 0.1265940587 0.05)
(0.6725128622 0.1337711255 0.05)
(0.7096985487 0.1411678184 0.05)
(0.7480221325 0.1487908532 0.05)
(0.7875184114 0.1566471516 0.05)
(0.8282232498 0.1647438473 0.05)
(0.8701736113 0.173088293 0.05)
(0.9134075919 0.1816880665 0.05)
(0.9579644544 0.1905509775 0.05)
(0.2049499775 0.05286739376 0.05)
(0.2276078238 0.05871204569 0.05)
(0.250960902 0.06473603454 0.05)
(0.2750300648 0.07094473935 0.05)
(0.2998369141 0.07734373234 0.05)
(0.3254037885 0.08393877583 0.05)
(0.3517537639 0.09073582232 0.05)
(0.3789106611 0.09774101642 0.05)
(0.4068990581 0.1049606981 0.05)
(0.4357443069 0.112401407 0.05)
(0.4654725512 0.120069887 0.05)
(0.4961107475 0.1279730915 0.05)
(0.5276866871 0.1361181894 0.05)
(0.5602290194 0.1445125709 0.05)
(0.593767277 0.153163854 0.05)
(0.6283319011 0.162079891 0.05)
(0.6639542682 0.1712687757 0.05)
(0.7006667189 0.1807388504 0.05)
(0.7385025856 0.1904987132 0.05)
(0.7774962234 0.2005572262 0.05)
(0.8176830402 0.2109235228 0.05)
(0.8590995293 0.2216070167 0.05)
(0.9017833016 0.2326174097 0.05)
(0.9457731205 0.2439647009 0.05)
(0.2016632549 0.06427586047 0.05)
(0.2239577439 0.07138175326 0.05)
(0.2469363156 0.07870568279 0.05)
(0.2706194884 0.08625418888 0.05)
(0.2950285175 0.09403404622 0.05)
(0.3201853835 0.1020522606 0.05)
(0.3461127921 0.1103160689 0.05)
(0.372834182 0.1188329419 0.05)
(0.4003737373 0.1276105877 0.05)
(0.4287564033 0.136656957 0.05)
(0.4580079045 0.145980249 0.05)
(0.488154765 0.1555889177 0.05)
(0.5192243305 0.1654916789 0.05)
(0.5512447911 0.1756975176 0.05)
(0.5842452055 0.1862156957 0.05)
(0.6182555268 0.1970557601 0.05)
(0.6533066285 0.208227551 0.05)
(0.6894303323 0.219741211 0.05)
(0.7266594364 0.2316071937 0.05)
(0.7650277446 0.2438362735 0.05)
(0.8045700973 0.2564395548 0.05)
(0.8453224022 0.2694284827 0.05)
(0.8873216675 0.2828148525 0.05)
(0.9306060346 0.2966108212 0.05)
(0.197742025 0.07548209155 0.05)
(0.2196030101 0.08382686743 0.05)
(0.2421347763 0.09242769386 0.05)
(0.2653574429 0.1012922508 0.05)
(0.289291852 0.1104284942 0.05)
(0.3139595568 0.1198446511 0.05)
(0.3393828213 0.1295492204 0.05)
(0.3655846286 0.1395509751 0.05)
(0.3925886926 0.1498589672 0.05)
(0.4204194735 0.1604825336 0.05)
(0.4491021954 0.1714313031 0.05)
(0.478662867 0.1827152035 0.05)
(0.5091283021 0.1943444703 0.05)
(0.5405261427 0.2063296549 0.05)
(0.5728848824 0.218681634 0.05)
(0.6062338918 0.2314116188 0.05)
(0.6406034444 0.2445311654 0.05)
(0.6760247429 0.2580521845 0.05)
(0.7125299478 0.2719869524 0.05)
(0.7501522056 0.2863481217 0.05)
(0.7889256791 0.3011487332 0.05)
(0.8288855782 0.316402227 0.05)
(0.8700681911 0.3321224552 0.05)
(0.9125109177 0.3483236941 0.05)
(0.1931986256 0.08645082804 0.05)
(0.2145573241 0.09600823126 0.05)
(0.2365713914 0.1058588932 0.05)
(0.2592604848 0.1160116099 0.05)
(0.2826449674 0.1264754933 0.05)
(0.3067458971 0.1372599661 0.05)
(0.3315850266 0.1483747621 0.05)
(0.3571848108 0.1598299292 0.05)
(0.3835684187 0.1716358349 0.05)
(0.4107597484 0.1838031728 0.05)
(0.4387834448 0.1963429709 0.05)
(0.4676649186 0.2092665998 0.05)
(0.4974303678 0.2225857821 0.05)
(0.528106799 0.2363126027 0.05)
(0.5597220514 0.2504595189 0.05)
(0.5923048208 0.265039371 0.05)
(0.6258846849 0.2800653943 0.05)
(0.6604921296 0.2955512304 0.05)
(0.6961585763 0.3115109395 0.05)
(0.7329164101 0.3279590128 0.05)
(0.770799009 0.3449103862 0.05)
(0.8098407735 0.3623804529 0.05)
(0.8500771583 0.3803850778 0.05)
(0.891544704 0.3989406118 0.05)
(0.1880473519 0.09714755823 0.05)
(0.2088365612 0.1078875177 0.05)
(0.2302636653 0.1189570213 0.05)
(0.2523477973 0.1303659535 0.05)
(0.2751087772 0.1421245536 0.05)
(0.2985671014 0.1542434104 0.05)
(0.3227439427 0.1667334619 0.05)
(0.3476611574 0.1796059993 0.05)
(0.3733412966 0.1928726727 0.05)
(0.3998076213 0.2065454992 0.05)
(0.4270841191 0.2206368711 0.05)
(0.4551955234 0.2351595658 0.05)
(0.4841673334 0.2501267567 0.05)
(0.514025836 0.2655520237 0.05)
(0.5447981279 0.2814493655 0.05)
(0.5765121397 0.2978332113 0.05)
(0.6091966606 0.3147184338 0.05)
(0.6428813636 0.3321203627 0.05)
(0.6775968323 0.3500547978 0.05)
(0.7133745885 0.3685380235 0.05)
(0.75024712 0.3875868235 0.05)
(0.7882479101 0.4072184958 0.05)
(0.8274114683 0.4274508682 0.05)
(0.8677733607 0.4483023146 0.05)
(0.1823044115 0.1075386263 0.05)
(0.2024587213 0.11942735 0.05)
(0.2232314446 0.1316808666 0.05)
(0.2446411302 0.1443101176 0.05)
(0.2667069929 0.1573264376 0.05)
(0.2894489031 0.1707415479 0.05)
(0.312887387 0.1845675565 0.05)
(0.3370436334 0.1988169624 0.05)
(0.3619395047 0.2135026618 0.05)
(0.3875975514 0.2286379571 0.05)
(0.4140410287 0.244236566 0.05)
(0.4412939146 0.2603126329 0.05)
(0.4693809296 0.27688074 0.05)
(0.4983275576 0.2939559198 0.05)
(0.5281600679 0.3115536682 0.05)
(0.5589055381 0.329689958 0.05)
(0.5905918782 0.3483812527 0.05)
(0.623247855 0.3676445215 0.05)
(0.6569031181 0.3874972543 0.05)
(0.6915882265 0.4079574773 0.05)
(0.7273346759 0.4290437693 0.05)
(0.7641749271 0.4507752786 0.05)
(0.8021424356 0.4731717399 0.05)
(0.8412716814 0.4962534926 0.05)
(0.1759878741 0.117591338 0.05)
(0.1954438714 0.1305914198 0.05)
(0.2154968552 0.1439903952 0.05)
(0.2361647316 0.1578002287 0.05)
(0.2574660497 0.1720333144 0.05)
(0.2794199915 0.1867024693 0.05)
(0.3020463719 0.2018209333 0.05)
(0.3253656454 0.2174023738 0.05)
(0.3493989171 0.2334608926 0.05)
(0.3741679563 0.2500110354 0.05)
(0.3996952121 0.2670678024 0.05)
(0.4260038319 0.2846466601 0.05)
(0.4531176796 0.302763554 0.05)
(0.4810613562 0.3214349217 0.05)
(0.5098602208 0.3406777079 0.05)
(0.5395404129 0.3605093782 0.05)
(0.5701288753 0.3809479353 0.05)
(0.6016533781 0.4020119347 0.05)
(0.6341425437 0.4237205011 0.05)
(0.6676258721 0.4460933459 0.05)
(0.7021337679 0.4691507847 0.05)
(0.7376975671 0.4929137556 0.05)
(0.7743495661 0.5174038383 0.05)
(0.8121230502 0.5426432735 0.05)
(0.1691176137 0.1272740639 0.05)
(0.1878140827 0.1413446006 0.05)
(0.2070842329 0.1558468767 0.05)
(0.2269452714 0.1707938418 0.05)
(0.2474150231 0.1861989107 0.05)
(0.2685119212 0.2020759557 0.05)
(0.2902550071 0.2184393068 0.05)
(0.3126639367 0.2353037569 0.05)
(0.3357589914 0.2526845689 0.05)
(0.3595610903 0.2705974864 0.05)
(0.3840918065 0.2890587446 0.05)
(0.4093733835 0.3080850837 0.05)
(0.4354287538 0.3276937618 0.05)
(0.4622815579 0.3479025705 0.05)
(0.4899561649 0.3687298494 0.05)
(0.518477694 0.3901945025 0.05)
(0.547872036 0.4123160148 0.05)
(0.5781658771 0.4351144695 0.05)
(0.6093867221 0.4586105664 0.05)
(0.6415629197 0.4828256397 0.05)
(0.6747236873 0.5077816781 0.05)
(0.7088991377 0.5335013436 0.05)
(0.7441203064 0.5600079929 0.05)
(0.7804191794 0.5873256979 0.05)
(0.1617152468 0.1365563385 0.05)
(0.1795933614 0.151653059 0.05)
(0.198020047 0.1672130063 0.05)
(0.2170117574 0.1832500744 0.05)
(0.2365855373 0.1997786564 0.05)
(0.256759013 0.2168136363 0.05)
(0.2775503926 0.2343703895 0.05)
(0.2989784717 0.2524647873 0.05)
(0.3210626436 0.2711132061 0.05)
(0.3438229121 0.2903325376 0.05)
(0.3672799059 0.3101402011 0.05)
(0.391454895 0.3305541575 0.05)
(0.416369808 0.3515929239 0.05)
(0.4420472508 0.3732755892 0.05)
(0.4685105257 0.3956218305 0.05)
(0.4957836524 0.4186519306 0.05)
(0.5238913886 0.4423867955 0.05)
(0.5528592523 0.4668479733 0.05)
(0.5827135445 0.4920576732 0.05)
(0.613481373 0.5180387855 0.05)
(0.6451906763 0.5448149024 0.05)
(0.6778702492 0.572410339 0.05)
(0.7115497689 0.6008501551 0.05)
(0.7462598211 0.6301601784 0.05)
(0.1538040638 0.1454089563 0.05)
(0.170807573 0.1614843608 0.05)
(0.1883328168 0.1780530219 0.05)
(0.2063954441 0.1951297344 0.05)
(0.2250116659 0.2127298245 0.05)
(0.244198246 0.230869141 0.05)
(0.2639725019 0.2495640561 0.05)
(0.2843523097 0.2688314701 0.05)
(0.3053561139 0.2886888209 0.05)
(0.3270029398 0.3091540953 0.05)
(0.3493124069 0.3302458418 0.05)
(0.3723047446 0.3519831857 0.05)
(0.3960008088 0.3743858446 0.05)
(0.4204220995 0.3974741446 0.05)
(0.445590779 0.4212690389 0.05)
(0.471529692 0.4457921248 0.05)
(0.498262385 0.4710656637 0.05)
(0.5258131277 0.4971126006 0.05)
(0.5542069345 0.5239565845 0.05)
(0.5834695869 0.5516219897 0.05)
(0.6136276567 0.5801339376 0.05)
(0.6447085302 0.6095183197 0.05)
(0.6767404325 0.6398018204 0.05)
(0.7097524533 0.6710119417 0.05)
(0.1454089563 0.1538040638 0.05)
(0.1614843608 0.170807573 0.05)
(0.1780530219 0.1883328168 0.05)
(0.1951297344 0.2063954441 0.05)
(0.2127298245 0.2250116659 0.05)
(0.230869141 0.244198246 0.05)
(0.2495640561 0.2639725019 0.05)
(0.2688314701 0.2843523097 0.05)
(0.2886888209 0.3053561139 0.05)
(0.3091540953 0.3270029398 0.05)
(0.3302458418 0.3493124069 0.05)
(0.3519831857 0.3723047446 0.05)
(0.3743858446 0.3960008088 0.05)
(0.3974741446 0.4204220995 0.05)
(0.4212690389 0.445590779 0.05)
(0.4457921248 0.471529692 0.05)
(0.4710656637 0.498262385 0.05)
(0.4971126006 0.5258131277 0.05)
(0.5239565845 0.5542069345 0.05)
(0.5516219897 0.5834695869 0.05)
(0.5801339376 0.6136276567 0.05)
(0.6095183197 0.6447085302 0.05)
(0.6398018204 0.6767404325 0.05)
(0.6710119417 0.7097524533 0.05)
(0.1365563385 0.1617152468 0.05)
(0.151653059 0.1795933614 0.05)
(0.1672130063 0.198020047 0.05)
(0.1832500744 0.2170117574 0.05)
(0.1997786564 0.2365855373 0.05)
(0.2168136363 0.256759013 0.05)
(0.2343703895 0.2775503926 0.05)
(0.2524647873 0.2989784717 0.05)
(0.2711132061 0.3210626436 0.05)
(0.2903325376 0.3438229121 0.05)
(0.3101402011 0.3672799059 0.05)
(0.3305541575 0.391454895 0.05)
(0.3515929239 0.416369808 0.05)
(0.3732755892 0.4420472508 0.05)
(0.3956218305 0.4685105257 0.05)
(0.4186519306 0.4957836524 0.05)
(0.4423867955 0.5238913886 0.05)
(0.4668479733 0.5528592523 0.05)
(0.4920576732 0.5827135445 0.05)
(0.5180387855 0.613481373 0.05)
(0.5448149024 0.6451906763 0.05)
(0.572410339 0.6778702492 0.05)
(0.6008501551 0.7115497689 0.05)
(0.6301601784 0.7462598211 0.05)
(0.1272740639 0.1691176137 0.05)
(0.1413446006 0.1878140827 0.05)
(0.1558468767 0.2070842329 0.05)
(0.1707938418 0.2269452714 0.05)
(0.1861989107 0.2474150231 0.05)
(0.2020759557 0.2685119212 0.05)
(0.2184393068 0.2902550071 0.05)
(0.2353037569 0.3126639367 0.05)
(0.2526845689 0.3357589914 0.05)
(0.2705974864 0.3595610903 0.05)
(0.2890587446 0.3840918065 0.05)
(0.3080850837 0.4093733835 0.05)
(0.3276937618 0.4354287538 0.05)
(0.3479025705 0.4622815579 0.05)
(0.3687298494 0.4899561649 0.05)
(0.3901945025 0.518477694 0.05)
(0.4123160148 0.547872036 0.05)
(0.4351144695 0.5781658771 0.05)
(0.4586105664 0.6093867221 0.05)
(0.4828256397 0.6415629197 0.05)
(0.5077816781 0.6747236873 0.05)
(0.5335013436 0.7088991377 0.05)
(0.5600079929 0.7441203064 0.05)
(0.5873256979 0.7804191794 0.05)
(0.117591338 0.1759878741 0.05)
(0.1305914198 0.1954438714 0.05)
(0.1439903952 0.2154968552 0.05)
(0.1578002287 0.2361647316 0.05)
(0.1720333144 0.2574660497 0.05)
(0.1867024693 0.2794199915 0.05)
(0.2018209333 0.3020463719 0.05)
(0.2174023738 0.3253656454 0.05)
(0.2334608926 0.3493989171 0.05)
(0.2500110354 0.3741679563 0.05)
(0.2670678024 0.3996952121 0.05)
(0.2846466601 0.4260038319 0.05)
(0.302763554 0.4531176796 0.05)
(0.3214349217 0.4810613562 0.05)
(0.3406777079 0.5098602208 0.05)
(0.3605093782 0.5395404129 0.05)
(0.3809479353 0.5701288753 0.05)
(0.4020119347 0.6016533781 0.05)
(0.4237205011 0.6341425437 0.05)
(0.4460933459 0.6676258721 0.05)
(0.4691507847 0.7021337679 0.05)
(0.4929137556 0.7376975671 0.05)
(0.5174038383 0.7743495661 0.05)
(0.5426432735 0.8121230502 0.05)
(0.1075386263 0.1823044115 0.05)
(0.11942735 0.2024587213 0.05)
(0.1316808666 0.2232314446 0.05)
(0.1443101176 0.2446411302 0.05)
(0.1573264376 0.2667069929 0.05)
(0.1707415479 0.2894489031 0.05)
(0.1845675565 0.312887387 0.05)
(0.1988169624 0.3370436334 0.05)
(0.2135026618 0.3619395047 0.05)
(0.2286379571 0.3875975514 0.05)
(0.244236566 0.4140410287 0.05)
(0.2603126329 0.4412939146 0.05)
(0.27688074 0.4693809296 0.05)
(0.2939559198 0.4983275576 0.05)
(0.3115536682 0.5281600679 0.05)
(0.329689958 0.5589055381 0.05)
(0.3483812527 0.5905918782 0.05)
(0.3676445215 0.623247855 0.05)
(0.3874972543 0.6569031181 0.05)
(0.4079574773 0.6915882265 0.05)
(0.4290437693 0.7273346759 0.05)
(0.4507752786 0.7641749271 0.05)
(0.4731717399 0.8021424356 0.05)
(0.4962534926 0.8412716814 0.05)
(0.09714755823 0.1880473519 0.05)
(0.1078875177 0.2088365612 0.05)
(0.1189570213 0.2302636653 0.05)
(0.1303659535 0.2523477973 0.05)
(0.1421245536 0.2751087772 0.05)
(0.1542434104 0.2985671014 0.05)
(0.1667334619 0.3227439427 0.05)
(0.1796059993 0.3476611574 0.05)
(0.1928726727 0.3733412966 0.05)
(0.2065454992 0.3998076213 0.05)
(0.2206368711 0.4270841191 0.05)
(0.2351595658 0.4551955234 0.05)
(0.2501267567 0.4841673334 0.05)
(0.2655520237 0.514025836 0.05)
(0.2814493655 0.5447981279 0.05)
(0.2978332113 0.5765121397 0.05)
(0.3147184338 0.6091966606 0.05)
(0.3321203627 0.6428813636 0.05)
(0.3500547978 0.6775968323 0.05)
(0.3685380235 0.7133745885 0.05)
(0.3875868235 0.75024712 0.05)
(0.4072184958 0.7882479101 0.05)
(0.4274508682 0.8274114683 0.05)
(0.4483023146 0.8677733607 0.05)
(0.08645082804 0.1931986256 0.05)
(0.09600823126 0.2145573241 0.05)
(0.1058588932 0.2365713914 0.05)
(0.1160116099 0.2592604848 0.05)
(0.1264754933 0.2826449674 0.05)
(0.1372599661 0.3067458971 0.05)
(0.1483747621 0.3315850266 0.05)
(0.1598299292 0.3571848108 0.05)
(0.1716358349 0.3835684187 0.05)
(0.1838031728 0.4107597484 0.05)
(0.1963429709 0.4387834448 0.05)
(0.2092665998 0.4676649186 0.05)
(0.2225857821 0.4974303678 0.05)
(0.2363126027 0.528106799 0.05)
(0.2504595189 0.5597220514 0.05)
(0.265039371 0.5923048208 0.05)
(0.2800653943 0.6258846849 0.05)
(0.2955512304 0.6604921296 0.05)
(0.3115109395 0.6961585763 0.05)
(0.3279590128 0.7329164101 0.05)
(0.3449103862 0.770799009 0.05)
(0.3623804529 0.8098407735 0.05)
(0.3803850778 0.8500771583 0.05)
(0.3989406118 0.891544704 0.05)
(0.07548209155 0.197742025 0.05)
(0.08382686743 0.2196030101 0.05)
(0.09242769386 0.2421347763 0.05)
(0.1012922508 0.2653574429 0.05)
(0.1104284942 0.289291852 0.05)
(0.1198446511 0.3139595568 0.05)
(0.1295492204 0.3393828213 0.05)
(0.1395509751 0.3655846286 0.05)
(0.1498589672 0.3925886926 0.05)
(0.1604825336 0.4204194735 0.05)
(0.1714313031 0.4491021954 0.05)
(0.1827152035 0.478662867 0.05)
(0.1943444703 0.5091283021 0.05)
(0.2063296549 0.5405261427 0.05)
(0.218681634 0.5728848824 0.05)
(0.2314116188 0.6062338918 0.05)
(0.2445311654 0.6406034444 0.05)
(0.2580521845 0.6760247429 0.05)
(0.2719869524 0.7125299478 0.05)
(0.2863481217 0.7501522056 0.05)
(0.3011487332 0.7889256791 0.05)
(0.316402227 0.8288855782 0.05)
(0.3321224552 0.8700681911 0.05)
(0.3483236941 0.9125109177 0.05)
(0.06427586047 0.2016632549 0.05)
(0.07138175326 0.2239577439 0.05)
(0.07870568279 0.2469363156 0.05)
(0.08625418888 0.2706194884 0.05)
(0.09403404622 0.2950285175 0.05)
(0.1020522606 0.3201853835 0.05)
(0.1103160689 0.3461127921 0.05)
(0.1188329419 0.372834182 0.05)
(0.1276105877 0.4003737373 0.05)
(0.136656957 0.4287564033 0.05)
(0.145980249 0.4580079045 0.05)
(0.1555889177 0.488154765 0.05)
(0.1654916789 0.5192243305 0.05)
(0.1756975176 0.5512447911 0.05)
(0.1862156957 0.5842452055 0.05)
(0.1970557601 0.6182555268 0.05)
(0.208227551 0.6533066285 0.05)
(0.219741211 0.6894303323 0.05)
(0.2316071937 0.7266594364 0.05)
(0.2438362735 0.7650277446 0.05)
(0.2564395548 0.8045700973 0.05)
(0.2694284827 0.8453224022 0.05)
(0.2828148525 0.8873216675 0.05)
(0.2966108212 0.9306060346 0.05)
(0.05286739376 0.2049499775 0.05)
(0.05871204569 0.2276078238 0.05)
(0.06473603454 0.250960902 0.05)
(0.07094473935 0.2750300648 0.05)
(0.07734373234 0.2998369141 0.05)
(0.08393877583 0.3254037885 0.05)
(0.09073582232 0.3517537639 0.05)
(0.09774101642 0.3789106611 0.05)
(0.1049606981 0.4068990581 0.05)
(0.112401407 0.4357443069 0.05)
(0.120069887 0.4654725512 0.05)
(0.1279730915 0.4961107475 0.05)
(0.1361181894 0.5276866871 0.05)
(0.1445125709 0.5602290194 0.05)
(0.153163854 0.593767277 0.05)
(0.162079891 0.6283319011 0.05)
(0.1712687757 0.6639542682 0.05)
(0.1807388504 0.7006667189 0.05)
(0.1904987132 0.7385025856 0.05)
(0.2005572262 0.7774962234 0.05)
(0.2109235228 0.8176830402 0.05)
(0.2216070167 0.8590995293 0.05)
(0.2326174097 0.9017833016 0.05)
(0.2439647009 0.9457731205 0.05)
(0.04129258667 0.2075918517 0.05)
(0.04585760831 0.2305417653 0.05)
(0.05056270277 0.2541958725 0.05)
(0.05541207141 0.2785752949 0.05)
(0.06041006646 0.3037019129 0.05)
(0.06556118866 0.3295983529 0.05)
(0.07087008723 0.3562879883 0.05)
(0.07634156149 0.383794947 0.05)
(0.08198056339 0.4121441239 0.05)
(0.08779220069 0.4413611976 0.05)
(0.09378174076 0.471472649 0.05)
(0.09995461469 0.502505782 0.05)
(0.1063164218 0.5344887461 0.05)
(0.1128729343 0.56745056 0.05)
(0.1196301022 0.6014211371 0.05)
(0.1265940587 0.6364313107 0.05)
(0.1337711255 0.6725128622 0.05)
(0.1411678184 0.7096985487 0.05)
(0.1487908532 0.7480221325 0.05)
(0.1566471516 0.7875184114 0.05)
(0.1647438473 0.8282232498 0.05)
(0.173088293 0.8701736113 0.05)
(0.1816880665 0.9134075919 0.05)
(0.1905509775 0.9579644544 0.05)
(0.02958785783 0.2095805651 0.05)
(0.03285888592 0.2327503371 0.05)
(0.03623028203 0.2566310487 0.05)
(0.03970505659 0.2812440241 0.05)
(0.04328632818 0.306611353 0.05)
(0.04697732172 0.3327558789 0.05)
(0.05078136862 0.3597011989 0.05)
(0.05470190777 0.3874716721 0.05)
(0.05874248744 0.4160924318 0.05)
(0.06290676757 0.4455894028 0.05)
(0.06719852245 0.4759893195 0.05)
(0.07162164368 0.5073197474 0.05)
(0.07618014338 0.5396091057 0.05)
(0.08087815758 0.5728866912 0.05)
(0.08571994976 0.6071827037 0.05)
(0.0907099146 0.642528272 0.05)
(0.09585258185 0.6789554819 0.05)
(0.1011526203 0.7164974043 0.05)
(0.1066148422 0.755188125 0.05)
(0.1122442071 0.7950627751 0.05)
(0.1180458267 0.8361575626 0.05)
(0.1240249696 0.8785098053 0.05)
(0.1301870654 0.922157964 0.05)
(0.1365377102 0.9671416776 0.05)
(0.01779003463 0.2109098606 0.05)
(0.01975677733 0.2342265901 0.05)
(0.02178386742 0.2582587687 0.05)
(0.02387311499 0.2830278555 0.05)
(0.02602639508 0.3085560804 0.05)
(0.02824564676 0.3348664318 0.05)
(0.03053287304 0.3619826564 0.05)
(0.03289014161 0.3899292679 0.05)
(0.03531958591 0.418731559 0.05)
(0.03782340649 0.4484156188 0.05)
(0.04040387272 0.4790083514 0.05)
(0.04306332446 0.5105374971 0.05)
(0.04580417403 0.5430316555 0.05)
(0.04862890828 0.576520309 0.05)
(0.05154009067 0.6110338489 0.05)
(0.05454036353 0.6466036017 0.05)
(0.05763245047 0.6832618564 0.05)
(0.06081915864 0.721041894 0.05)
(0.0641033814 0.7599780162 0.05)
(0.0674881008 0.8001055771 0.05)
(0.07097639034 0.8414610144 0.05)
(0.07457141769 0.8840818824 0.05)
(0.07827644758 0.9280068859 0.05)
(0.08209484468 0.9732759153 0.05)
(0.005936237412 0.2115755555 0.05)
(0.006592506597 0.2349658797 0.05)
(0.007268912705 0.259073911 0.05)
(0.007966059716 0.2839211765 0.05)
(0.008684573321 0.3095299763 0.05)
(0.009425100538 0.335923371 0.05)
(0.01018830975 0.3631251826 0.05)
(0.01097489089 0.391160002 0.05)
(0.01178555587 0.4200532018 0.05)
(0.01262103898 0.4498309534 0.05)
(0.01348209746 0.4805202459 0.05)
(0.01436951208 0.5121489071 0.05)
(0.01528408782 0.5447456267 0.05)
(0.01622665444 0.5783399805 0.05)
(0.01719806738 0.6129624556 0.05)
(0.01819920833 0.6486444772 0.05)
(0.01923098609 0.6854184364 0.05)
(0.02029433737 0.7233177192 0.05)
(0.02139022765 0.7623767355 0.05)
(0.02251965199 0.8026309511 0.05)
(0.02368363594 0.8441169185 0.05)
(0.02488323652 0.8868723108 0.05)
(0.0261195431 0.9309359548 0.05)
(0.02739367844 0.9763478669 0.05)
(-0.005936237412 0.2115755555 0.05)
(-0.006592506597 0.2349658797 0.05)
(-0.007268912705 0.259073911 0.05)
(-0.007966059716 0.2839211765 0.05)
(-0.008684573321 0.3095299763 0.05)
(-0.009425100538 0.335923371 0.05)
(-0.01018830975 0.3631251826 0.05)
(-0.01097489089 0.391160002 0.05)
(-0.01178555587 0.4200532018 0.05)
(-0.01262103898 0.4498309534 0.05)
(-0.01348209746 0.4805202459 0.05)
(-0.01436951208 0.5121489071 0.05)
(-0.01528408782 0.5447456267 0.05)
(-0.01622665444 0.5783399805 0.05)
(-0.01719806738 0.6129624556 0.05)
(-0.01819920833 0.6486444772 0.05)
(-0.01923098609 0.6854184364 0.05)
(-0.02029433737 0.7233177192 0.05)
(-0.02139022765 0.7623767355 0.05)
(-0.02251965199 0.8026309511 0.05)
(-0.02368363594 0.8441169185 0.05)
(-0.02488323652 0.8868723108 0.05)
(-0.0261195431 0.9309359548 0.05)
(-0.02739367844 0.9763478669 0.05)
(-0.01779003463 0.2109098606 0.05)
(-0.01975677733 0.2342265901 0.05)
(-0.02178386742 0.2582587687 0.05)
(-0.02387311499 0.2830278555 0.05)
(-0.02602639508 0.3085560804 0.05)
(-0.02824564676 0.3348664318 0.05)
(-0.03053287304 0.3619826564 0.05)
(-0.03289014161 0.3899292679 0.05)
(-0.03531958591 0.418731559 0.05)
(-0.03782340649 0.4484156188 0.05)
(-0.04040387272 0.4790083514 0.05)
(-0.04306332446 0.5105374971 0.05)
(-0.04580417403 0.5430316555 0.05)
(-0.04862890828 0.576520309 0.05)
(-0.05154009067 0.6110338489 0.05)
(-0.05454036353 0.6466036017 0.05)
(-0.05763245047 0.6832618564 0.05)
(-0.06081915864 0.721041894 0.05)
(-0.0641033814 0.7599780162 0.05)
(-0.0674881008 0.8001055771 0.05)
(-0.07097639034 0.8414610144 0.05)
(-0.07457141769 0.8840818824 0.05)
(-0.07827644758 0.9280068859 0.05)
(-0.08209484468 0.9732759153 0.05)
(-0.02958785783 0.2095805651 0.05)
(-0.03285888592 0.2327503371 0.05)
(-0.03623028203 0.2566310487 0.05)
(-0.03970505659 0.2812440241 0.05)
(-0.04328632818 0.306611353 0.05)
(-0.04697732172 0.3327558789 0.05)
(-0.05078136862 0.3597011989 0.05)
(-0.05470190777 0.3874716721 0.05)
(-0.05874248744 0.4160924318 0.05)
(-0.06290676757 0.4455894028 0.05)
(-0.06719852245 0.4759893195 0.05)
(-0.07162164368 0.5073197474 0.05)
(-0.07618014338 0.5396091057 0.05)
(-0.08087815758 0.5728866912 0.05)
(-0.08571994976 0.6071827037 0.05)
(-0.0907099146 0.642528272 0.05)
(-0.09585258185 0.6789554819 0.05)
(-0.1011526203 0.7164974043 0.05)
(-0.1066148422 0.755188125 0.05)
(-0.1122442071 0.7950627751 0.05)
(-0.1180458267 0.8361575626 0.05)
(-0.1240249696 0.8785098053 0.05)
(-0.1301870654 0.922157964 0.05)
(-0.1365377102 0.9671416776 0.05)
(-0.04129258667 0.2075918517 0.05)
(-0.04585760831 0.2305417653 0.05)
(-0.05056270277 0.2541958725 0.05)
(-0.05541207141 0.2785752949 0.05)
(-0.06041006646 0.3037019129 0.05)
(-0.06556118866 0.3295983529 0.05)
(-0.07087008723 0.3562879883 0.05)
(-0.07634156149 0.383794947 0.05)
(-0.08198056339 0.4121441239 0.05)
(-0.08779220069 0.4413611976 0.05)
(-0.09378174076 0.471472649 0.05)
(-0.09995461469 0.502505782 0.05)
(-0.1063164218 0.5344887461 0.05)
(-0.1128729343 0.56745056 0.05)
(-0.1196301022 0.6014211371 0.05)
(-0.1265940587 0.6364313107 0.05)
(-0.1337711255 0.6725128622 0.05)
(-0.1411678184 0.7096985487 0.05)
(-0.1487908532 0.7480221325 0.05)
(-0.1566471516 0.7875184114 0.05)
(-0.1647438473 0.8282232498 0.05)
(-0.173088293 0.8701736113 0.05)
(-0.1816880665 0.9134075919 0.05)
(-0.1905509775 0.9579644544 0.05)
(-0.05286739376 0.2049499775 0.05)
(-0.05871204569 0.2276078238 0.05)
(-0.06473603454 0.250960902 0.05)
(-0.07094473935 0.2750300648 0.05)
(-0.07734373234 0.2998369141 0.05)
(-0.08393877583 0.3254037885 0.05)
(-0.09073582232 0.3517537639 0.05)
(-0.09774101642 0.3789106611 0.05)
(-0.1049606981 0.4068990581 0.05)
(-0.112401407 0.4357443069 0.05)
(-0.120069887 0.4654725512 0.05)
(-0.1279730915 0.4961107475 0.05)
(-0.1361181894 0.5276866871 0.05)
(-0.1445125709 0.5602290194 0.05)
(-0.153163854 0.593767277 0.05)
(-0.162079891 0.6283319011 0.05)
(-0.1712687757 0.6639542682 0.05)
(-0.1807388504 0.7006667189 0.05)
(-0.1904987132 0.7385025856 0.05)
(-0.2005572262 0.7774962234 0.05)
(-0.2109235228 0.8176830402 0.05)
(-0.2216070167 0.8590995293 0.05)
(-0.2326174097 0.9017833016 0.05)
(-0.2439647009 0.9457731205 0.05)
(-0.06427586047 0.2016632549 0.05)
(-0.07138175326 0.2239577439 0.05)
(-0.07870568279 0.2469363156 0.05)
(-0.08625418888 0.2706194884 0.05)
(-0.09403404622 0.2950285175 0.05)
(-0.1020522606 0.3201853835 0.05)
(-0.1103160689 0.3461127921 0.05)
(-0.1188329419 0.372834182 0.05)
(-0.1276105877 0.4003737373 0.05)
(-0.136656957 0.4287564033 0.05)
(-0.145980249 0.4580079045 0.05)
(-0.1555889177 0.488154765 0.05)
(-0.1654916789 0.5192243305 0.05)
(-0.1756975176 0.5512447911 0.05)
(-0.1862156957 0.5842452055 0.05)
(-0.1970557601 0.6182555268 0.05)
(-0.208227551 0.6533066285 0.05)
(-0.219741211 0.6894303323 0.05)
(-0.2316071937 0.7266594364 0.05)
(-0.2438362735 0.7650277446 0.05)
(-0.2564395548 0.8045700973 0.05)
(-0.2694284827 0.8453224022 0.05)
(-0.2828148525 0.8873216675 0.05)
(-0.2966108212 0.9306060346 0.05)
(-0.07548209155 0.197742025 0.05)
(-0.08382686743 0.2196030101 0.05)
(-0.09242769386 0.2421347763 0.05)
(-0.1012922508 0.2653574429 0.05)
(-0.1104284942 0.289291852 0.05)
(-0.1198446511 0.3139595568 0.05)
(-0.1295492204 0.3393828213 0.05)
(-0.1395509751 0.3655846286 0.05)
(-0.1498589672 0.3925886926 0.05)
(-0.1604825336 0.4204194735 0.05)
(-0.1714313031 0.4491021954 0.05)
(-0.1827152035 0.478662867 0.05)
(-0.1943444703 0.5091283021 0.05)
(-0.2063296549 0.5405261427 0.05)
(-0.218681634 0.5728848824 0.05)
(-0.2314116188 0.6062338918 0.05)
(-0.2445311654 0.6406034444 0.05)
(-0.2580521845 0.6760247429 0.05)
(-0.2719869524 0.7125299478 0.05)
(-0.2863481217 0.7501522056 0.05)
(-0.3011487332 0.7889256791 0.05)
(-0.316402227 0.8288855782 0.05)
(-0.3321224552 0.8700681911 0.05)
(-0.3483236941 0.9125109177 0.05)
(-0.08645082804 0.1931986256 0.05)
(-0.09600823126 0.2145573241 0.05)
(-0.1058588932 0.2365713914 0.05)
(-0.1160116099 0.2592604848 0.05)
(-0.1264754933 0.2826449674 0.05)
(-0.1372599661 0.3067458971 0.05)
(-0.1483747621 0.3315850266 0.05)
(-0.1598299292 0.3571848108 0.05)
(-0.1716358349 0.3835684187 0.05)
(-0.1838031728 0.4107597484 0.05)
(-0.1963429709 0.4387834448 0.05)
(-0.2092665998 0.4676649186 0.05)
(-0.2225857821 0.4974303678 0.05)
(-0.2363126027 0.528106799 0.05)
(-0.2504595189 0.5597220514 0.05)
(-0.265039371 0.5923048208 0.05)
(-0.2800653943 0.6258846849 0.05)
(-0.2955512304 0.6604921296 0.05)
(-0.3115109395 0.6961585763 0.05)
(-0.3279590128 0.7329164101 0.05)
(-0.3449103862 0.770799009 0.05)
(-0.3623804529 0.8098407735 0.05)
(-0.3803850778 0.8500771583 0.05)
(-0.3989406118 0.891544704 0.05)
(-0.09714755823 0.1880473519 0.05)
(-0.1078875177 0.2088365612 0.05)
(-0.1189570213 0.2302636653 0.05)
(-0.1303659535 0.2523477973 0.05)
(-0.1421245536 0.2751087772 0.05)
(-0.1542434104 0.2985671014 0.05)
(-0.1667334619 0.3227439427 0.05)
(-0.1796059993 0.3476611574 0.05)