/*--------------------------------*- C++ -*----------------------------------*\
| =========                 |                                                 |
| \\      /  F ield         | foam-extend: Open Source CFD                    |
|  \\    /   O peration     | Version:  3.0                                   |
|   \\  /    A nd           | Web:         http://www.extend-project.de       |
|    \\/     M anipulation  |                                                 |
\*---------------------------------------------------------------------------*/
FoamFile
{
    version     2.0;
    format      ascii;
    class       polyBoundaryMesh;
    location    "constant/polyMesh";
    object      boundary;
}
// * * * * * * * * * * * * * * * * * * * * * * * * * * * * * * * * * * * * * //

3
(
    out
    {
        type            wall;
        nFaces          28;
        startFace       308;
    }
    in
    {
        type            wall;
        nFaces          28;
        startFace       336;
    }
    frontAndBack
    {
        type            empty;
        nFaces          336;
        startFace       364;
    }
)

// ************************************************************************* //
