/*--------------------------------*- C++ -*----------------------------------*\
| =========                 |                                                 |
| \\      /  F ield         | foam-extend: Open Source CFD                    |
|  \\    /   O peration     | Version:  3.0                                   |
|   \\  /    A nd           | Web:         http://www.extend-project.de       |
|    \\/     M anipulation  |                                                 |
\*---------------------------------------------------------------------------*/
FoamFile
{
    version     2.0;
    format      ascii;
    class       volVectorField;
    location    "constant/polyMesh";
    object      Centers;
}
// * * * * * * * * * * * * * * * * * * * * * * * * * * * * * * * * * * * * * //

dimensions      [0 0 0 0 0 0 0];

internalField   nonuniform List<vector> 
168
(
(0.245577 0.0276699 0.05)
(0.342687 0.0386115 0.05)
(0.454405 0.0511992 0.05)
(0.58283 0.0656691 0.05)
(0.730408 0.0822972 0.05)
(0.89997 0.101402 0.05)
(0.233263 0.0816222 0.05)
(0.325503 0.113898 0.05)
(0.431619 0.15103 0.05)
(0.553604 0.193714 0.05)
(0.693782 0.242765 0.05)
(0.854841 0.299122 0.05)
(0.209252 0.131482 0.05)
(0.291997 0.183474 0.05)
(0.38719 0.243288 0.05)
(0.496619 0.312046 0.05)
(0.622368 0.391059 0.05)
(0.766848 0.481842 0.05)
(0.174748 0.174748 0.05)
(0.243849 0.243849 0.05)
(0.323346 0.323346 0.05)
(0.414731 0.414731 0.05)
(0.519745 0.519745 0.05)
(0.640401 0.640401 0.05)
(0.131482 0.209252 0.05)
(0.183474 0.291997 0.05)
(0.243288 0.38719 0.05)
(0.312046 0.496619 0.05)
(0.391059 0.622368 0.05)
(0.481842 0.766848 0.05)
(0.0816222 0.233263 0.05)
(0.113898 0.325503 0.05)
(0.15103 0.431619 0.05)
(0.193714 0.553604 0.05)
(0.242765 0.693782 0.05)
(0.299122 0.854841 0.05)
(0.0276699 0.245577 0.05)
(0.0386115 0.342687 0.05)
(0.0511992 0.454405 0.05)
(0.0656691 0.58283 0.05)
(0.0822972 0.730408 0.05)
(0.101402 0.89997 0.05)
(-0.0276699 0.245577 0.05)
(-0.0386115 0.342687 0.05)
(-0.0511992 0.454405 0.05)
(-0.0656691 0.58283 0.05)
(-0.0822972 0.730408 0.05)
(-0.101402 0.89997 0.05)
(-0.0816222 0.233263 0.05)
(-0.113898 0.325503 0.05)
(-0.15103 0.431619 0.05)
(-0.193714 0.553604 0.05)
(-0.242765 0.693782 0.05)
(-0.299122 0.854841 0.05)
(-0.131482 0.209252 0.05)
(-0.183474 0.291997 0.05)
(-0.243288 0.38719 0.05)
(-0.312046 0.496619 0.05)
(-0.391059 0.622368 0.05)
(-0.481842 0.766848 0.05)
(-0.174748 0.174748 0.05)
(-0.243849 0.243849 0.05)
(-0.323346 0.323346 0.05)
(-0.414731 0.414731 0.05)
(-0.519745 0.519745 0.05)
(-0.640401 0.640401 0.05)
(-0.209252 0.131482 0.05)
(-0.291997 0.183474 0.05)
(-0.38719 0.243288 0.05)
(-0.496619 0.312046 0.05)
(-0.622368 0.391059 0.05)
(-0.766848 0.481842 0.05)
(-0.233263 0.0816222 0.05)
(-0.325503 0.113898 0.05)
(-0.431619 0.15103 0.05)
(-0.553604 0.193714 0.05)
(-0.693782 0.242765 0.05)
(-0.854841 0.299122 0.05)
(-0.245577 0.0276699 0.05)
(-0.342687 0.0386115 0.05)
(-0.454405 0.0511992 0.05)
(-0.58283 0.0656691 0.05)
(-0.730408 0.0822972 0.05)
(-0.89997 0.101402 0.05)
(-0.245577 -0.0276699 0.05)
(-0.342687 -0.0386115 0.05)
(-0.454405 -0.0511992 0.05)
(-0.58283 -0.0656691 0.05)
(-0.730408 -0.0822972 0.05)
(-0.89997 -0.101402 0.05)
(-0.233263 -0.0816222 0.05)
(-0.325503 -0.113898 0.05)
(-0.431619 -0.15103 0.05)
(-0.553604 -0.193714 0.05)
(-0.693782 -0.242765 0.05)
(-0.854841 -0.299122 0.05)
(-0.209252 -0.131482 0.05)
(-0.291997 -0.183474 0.05)
(-0.38719 -0.243288 0.05)
(-0.496619 -0.312046 0.05)
(-0.622368 -0.391059 0.05)
(-0.766848 -0.481842 0.05)
(-0.174748 -0.174748 0.05)
(-0.243849 -0.243849 0.05)
(-0.323346 -0.323346 0.05)
(-0.414731 -0.414731 0.05)
(-0.519745 -0.519745 0.05)
(-0.640401 -0.640401 0.05)
(-0.131482 -0.209252 0.05)
(-0.183474 -0.291997 0.05)
(-0.243288 -0.38719 0.05)
(-0.312046 -0.496619 0.05)
(-0.391059 -0.622368 0.05)
(-0.481842 -0.766848 0.05)
(-0.0816222 -0.233263 0.05)
(-0.113898 -0.325503 0.05)
(-0.15103 -0.431619 0.05)
(-0.193714 -0.553604 0.05)
(-0.242765 -0.693782 0.05)
(-0.299122 -0.854841 0.05)
(-0.0276699 -0.245577 0.05)
(-0.0386115 -0.342687 0.05)
(-0.0511992 -0.454405 0.05)
(-0.0656691 -0.58283 0.05)
(-0.0822972 -0.730408 0.05)
(-0.101402 -0.89997 0.05)
(0.0276699 -0.245577 0.05)
(0.0386115 -0.342687 0.05)
(0.0511992 -0.454405 0.05)
(0.0656691 -0.58283 0.05)
(0.0822972 -0.730408 0.05)
(0.101402 -0.89997 0.05)
(0.0816222 -0.233263 0.05)
(0.113898 -0.325503 0.05)
(0.15103 -0.431619 0.05)
(0.193714 -0.553604 0.05)
(0.242765 -0.693782 0.05)
(0.299122 -0.854841 0.05)
(0.131482 -0.209252 0.05)
(0.183474 -0.291997 0.05)
(0.243288 -0.38719 0.05)
(0.312046 -0.496619 0.05)
(0.391059 -0.622368 0.05)
(0.481842 -0.766848 0.05)
(0.174748 -0.174748 0.05)
(0.243849 -0.243849 0.05)
(0.323346 -0.323346 0.05)
(0.414731 -0.414731 0.05)
(0.519745 -0.519745 0.05)
(0.640401 -0.640401 0.05)
(0.209252 -0.131482 0.05)
(0.291997 -0.183474 0.05)
(0.38719 -0.243288 0.05)
(0.496619 -0.312046 0.05)
(0.622368 -0.391059 0.05)
(0.766848 -0.481842 0.05)
(0.233263 -0.0816222 0.05)
(0.325503 -0.113898 0.05)
(0.431619 -0.15103 0.05)
(0.553604 -0.193714 0.05)
(0.693782 -0.242765 0.05)
(0.854841 -0.299122 0.05)
(0.245577 -0.0276699 0.05)
(0.342687 -0.0386115 0.05)
(0.454405 -0.0511992 0.05)
(0.58283 -0.0656691 0.05)
(0.730408 -0.0822972 0.05)
(0.89997 -0.101402 0.05)
)
;

boundaryField
{
    out
    {
        type            calculated;
        value           uniform (0 0 0);
    }
    in
    {
        type            calculated;
        value           uniform (0 0 0);
    }
    frontAndBack
    {
        type            empty;
    }
}


// ************************************************************************* //
