/*--------------------------------*- C++ -*----------------------------------*\
| =========                 |                                                 |
| \\      /  F ield         | foam-extend: Open Source CFD                    |
|  \\    /   O peration     | Version:  3.0                                   |
|   \\  /    A nd           | Web:         http://www.extend-project.de       |
|    \\/     M anipulation  |                                                 |
\*---------------------------------------------------------------------------*/
FoamFile
{
    version     2.0;
    format      ascii;
    class       volScalarField;
    location    "constant/polyMesh";
    object      Volumes;
}
// * * * * * * * * * * * * * * * * * * * * * * * * * * * * * * * * * * * * * //

dimensions      [0 3 0 0 0 0 0];

internalField   nonuniform List<scalar> 
168
(
0.000501598
0.000807056
0.0012317
0.00181682
0.00261738
0.00370645
0.000501598
0.000807056
0.0012317
0.00181682
0.00261738
0.00370645
0.000501598
0.000807056
0.0012317
0.00181682
0.00261738
0.00370645
0.000501598
0.000807056
0.0012317
0.00181682
0.00261738
0.00370645
0.000501598
0.000807056
0.0012317
0.00181682
0.00261738
0.00370645
0.000501598
0.000807056
0.0012317
0.00181682
0.00261738
0.00370645
0.000501598
0.000807056
0.0012317
0.00181682
0.00261738
0.00370645
0.000501598
0.000807056
0.0012317
0.00181682
0.00261738
0.00370645
0.000501598
0.000807056
0.0012317
0.00181682
0.00261738
0.00370645
0.000501598
0.000807056
0.0012317
0.00181682
0.00261738
0.00370645
0.000501598
0.000807056
0.0012317
0.00181682
0.00261738
0.00370645
0.000501598
0.000807056
0.0012317
0.00181682
0.00261738
0.00370645
0.000501598
0.000807056
0.0012317
0.00181682
0.00261738
0.00370645
0.000501598
0.000807056
0.0012317
0.00181682
0.00261738
0.00370645
0.000501598
0.000807056
0.0012317
0.00181682
0.00261738
0.00370645
0.000501598
0.000807056
0.0012317
0.00181682
0.00261738
0.00370645
0.000501598
0.000807056
0.0012317
0.00181682
0.00261738
0.00370645
0.000501598
0.000807056
0.0012317
0.00181682
0.00261738
0.00370645
0.000501598
0.000807056
0.0012317
0.00181682
0.00261738
0.00370645
0.000501598
0.000807056
0.0012317
0.00181682
0.00261738
0.00370645
0.000501598
0.000807056
0.0012317
0.00181682
0.00261738
0.00370645
0.000501598
0.000807056
0.0012317
0.00181682
0.00261738
0.00370645
0.000501598
0.000807056
0.0012317
0.00181682
0.00261738
0.00370645
0.000501598
0.000807056
0.0012317
0.00181682
0.00261738
0.00370645
0.000501598
0.000807056
0.0012317
0.00181682
0.00261738
0.00370645
0.000501598
0.000807056
0.0012317
0.00181682
0.00261738
0.00370645
0.000501598
0.000807056
0.0012317
0.00181682
0.00261738
0.00370645
0.000501598
0.000807056
0.0012317
0.00181682
0.00261738
0.00370645
)
;

boundaryField
{
    out
    {
        type            calculated;
        value           uniform 0;
    }
    in
    {
        type            calculated;
        value           uniform 0;
    }
    frontAndBack
    {
        type            empty;
    }
}


// ************************************************************************* //
