/*--------------------------------*- C++ -*----------------------------------*\
| =========                 |                                                 |
| \\      /  F ield         | OpenFOAM: The Open Source CFD Toolbox           |
|  \\    /   O peration     | Version:  2.2.0                                 |
|   \\  /    A nd           | Web:      www.OpenFOAM.org                      |
|    \\/     M anipulation  |                                                 |
\*---------------------------------------------------------------------------*/
FoamFile
{
    version     2.0;
    format      ascii;
    class       volScalarField;
    location    "constant/polyMesh";
    object      Volumes;
}
// * * * * * * * * * * * * * * * * * * * * * * * * * * * * * * * * * * * * * //

dimensions      [0 3 0 0 0 0 0];

internalField   nonuniform List<scalar> 
81920
(
5.81974e-06
5.95456e-06
6.08938e-06
6.2242e-06
6.35902e-06
6.49384e-06
6.62866e-06
6.76348e-06
6.8983e-06
7.03313e-06
7.16795e-06
7.30277e-06
7.43759e-06
7.57241e-06
7.70723e-06
7.84205e-06
7.97687e-06
8.11169e-06
8.24651e-06
8.38133e-06
8.51615e-06
8.65097e-06
8.78579e-06
8.92061e-06
9.05543e-06
9.19025e-06
9.32507e-06
9.45989e-06
9.59471e-06
9.72953e-06
9.86435e-06
9.99917e-06
1.0134e-05
1.02688e-05
1.04036e-05
1.05385e-05
1.06733e-05
1.08081e-05
1.09429e-05
1.10777e-05
1.12126e-05
1.13474e-05
1.14822e-05
1.1617e-05
1.17518e-05
1.18867e-05
1.20215e-05
1.21563e-05
1.22911e-05
1.24259e-05
1.25608e-05
1.26956e-05
1.28304e-05
1.29652e-05
1.31e-05
1.32349e-05
1.33697e-05
1.35045e-05
1.36393e-05
1.37741e-05
1.3909e-05
1.40438e-05
1.41786e-05
1.43134e-05
1.44482e-05
1.45831e-05
1.47179e-05
1.48527e-05
1.49875e-05
1.51223e-05
1.52572e-05
1.5392e-05
1.55268e-05
1.56616e-05
1.57965e-05
1.59313e-05
1.60661e-05
1.62009e-05
1.63357e-05
1.64706e-05
1.66054e-05
1.67402e-05
1.6875e-05
1.70098e-05
1.71447e-05
1.72795e-05
1.74143e-05
1.75491e-05
1.76839e-05
1.78188e-05
1.79536e-05
1.80884e-05
1.82232e-05
1.8358e-05
1.84929e-05
1.86277e-05
1.87625e-05
1.88973e-05
1.90321e-05
1.9167e-05
1.93018e-05
1.94366e-05
1.95714e-05
1.97062e-05
1.98411e-05
1.99759e-05
2.01107e-05
2.02455e-05
2.03803e-05
2.05152e-05
2.065e-05
2.07848e-05
2.09196e-05
2.10544e-05
2.11893e-05
2.13241e-05
2.14589e-05
2.15937e-05
2.17285e-05
2.18634e-05
2.19982e-05
2.2133e-05
2.22678e-05
2.24027e-05
2.25375e-05
2.26723e-05
2.28071e-05
2.29419e-05
5.81974e-06
5.95456e-06
6.08938e-06
6.2242e-06
6.35902e-06
6.49384e-06
6.62866e-06
6.76348e-06
6.8983e-06
7.03313e-06
7.16795e-06
7.30277e-06
7.43759e-06
7.57241e-06
7.70723e-06
7.84205e-06
7.97687e-06
8.11169e-06
8.24651e-06
8.38133e-06
8.51615e-06
8.65097e-06
8.78579e-06
8.92061e-06
9.05543e-06
9.19025e-06
9.32507e-06
9.45989e-06
9.59471e-06
9.72953e-06
9.86435e-06
9.99917e-06
1.0134e-05
1.02688e-05
1.04036e-05
1.05385e-05
1.06733e-05
1.08081e-05
1.09429e-05
1.10777e-05
1.12126e-05
1.13474e-05
1.14822e-05
1.1617e-05
1.17518e-05
1.18867e-05
1.20215e-05
1.21563e-05
1.22911e-05
1.24259e-05
1.25608e-05
1.26956e-05
1.28304e-05
1.29652e-05
1.31e-05
1.32349e-05
1.33697e-05
1.35045e-05
1.36393e-05
1.37741e-05
1.3909e-05
1.40438e-05
1.41786e-05
1.43134e-05
1.44482e-05
1.45831e-05
1.47179e-05
1.48527e-05
1.49875e-05
1.51223e-05
1.52572e-05
1.5392e-05
1.55268e-05
1.56616e-05
1.57965e-05
1.59313e-05
1.60661e-05
1.62009e-05
1.63357e-05
1.64706e-05
1.66054e-05
1.67402e-05
1.6875e-05
1.70098e-05
1.71447e-05
1.72795e-05
1.74143e-05
1.75491e-05
1.76839e-05
1.78188e-05
1.79536e-05
1.80884e-05
1.82232e-05
1.8358e-05
1.84929e-05
1.86277e-05
1.87625e-05
1.88973e-05
1.90321e-05
1.9167e-05
1.93018e-05
1.94366e-05
1.95714e-05
1.97062e-05
1.98411e-05
1.99759e-05
2.01107e-05
2.02455e-05
2.03803e-05
2.05152e-05
2.065e-05
2.07848e-05
2.09196e-05
2.10544e-05
2.11893e-05
2.13241e-05
2.14589e-05
2.15937e-05
2.17285e-05
2.18634e-05
2.19982e-05
2.2133e-05
2.22678e-05
2.24027e-05
2.25375e-05
2.26723e-05
2.28071e-05
2.29419e-05
5.81974e-06
5.95456e-06
6.08938e-06
6.2242e-06
6.35902e-06
6.49384e-06
6.62866e-06
6.76348e-06
6.8983e-06
7.03313e-06
7.16795e-06
7.30277e-06
7.43759e-06
7.57241e-06
7.70723e-06
7.84205e-06
7.97687e-06
8.11169e-06
8.24651e-06
8.38133e-06
8.51615e-06
8.65097e-06
8.78579e-06
8.92061e-06
9.05543e-06
9.19025e-06
9.32507e-06
9.45989e-06
9.59471e-06
9.72953e-06
9.86435e-06
9.99917e-06
1.0134e-05
1.02688e-05
1.04036e-05
1.05385e-05
1.06733e-05
1.08081e-05
1.09429e-05
1.10777e-05
1.12126e-05
1.13474e-05
1.14822e-05
1.1617e-05
1.17518e-05
1.18867e-05
1.20215e-05
1.21563e-05
1.22911e-05
1.24259e-05
1.25608e-05
1.26956e-05
1.28304e-05
1.29652e-05
1.31e-05
1.32349e-05
1.33697e-05
1.35045e-05
1.36393e-05
1.37741e-05
1.3909e-05
1.40438e-05
1.41786e-05
1.43134e-05
1.44482e-05
1.45831e-05
1.47179e-05
1.48527e-05
1.49875e-05
1.51223e-05
1.52572e-05
1.5392e-05
1.55268e-05
1.56616e-05
1.57965e-05
1.59313e-05
1.60661e-05
1.62009e-05
1.63357e-05
1.64706e-05
1.66054e-05
1.67402e-05
1.6875e-05
1.70098e-05
1.71447e-05
1.72795e-05
1.74143e-05
1.75491e-05
1.76839e-05
1.78188e-05
1.79536e-05
1.80884e-05
1.82232e-05
1.8358e-05
1.84929e-05
1.86277e-05
1.87625e-05
1.88973e-05
1.90321e-05
1.9167e-05
1.93018e-05
1.94366e-05
1.95714e-05
1.97062e-05
1.98411e-05
1.99759e-05
2.01107e-05
2.02455e-05
2.03803e-05
2.05152e-05
2.065e-05
2.07848e-05
2.09196e-05
2.10544e-05
2.11893e-05
2.13241e-05
2.14589e-05
2.15937e-05
2.17285e-05
2.18634e-05
2.19982e-05
2.2133e-05
2.22678e-05
2.24027e-05
2.25375e-05
2.26723e-05
2.28071e-05
2.29419e-05
5.81974e-06
5.95456e-06
6.08938e-06
6.2242e-06
6.35902e-06
6.49384e-06
6.62866e-06
6.76348e-06
6.8983e-06
7.03313e-06
7.16795e-06
7.30277e-06
7.43759e-06
7.57241e-06
7.70723e-06
7.84205e-06
7.97687e-06
8.11169e-06
8.24651e-06
8.38133e-06
8.51615e-06
8.65097e-06
8.78579e-06
8.92061e-06
9.05543e-06
9.19025e-06
9.32507e-06
9.45989e-06
9.59471e-06
9.72953e-06
9.86435e-06
9.99917e-06
1.0134e-05
1.02688e-05
1.04036e-05
1.05385e-05
1.06733e-05
1.08081e-05
1.09429e-05
1.10777e-05
1.12126e-05
1.13474e-05
1.14822e-05
1.1617e-05
1.17518e-05
1.18867e-05
1.20215e-05
1.21563e-05
1.22911e-05
1.24259e-05
1.25608e-05
1.26956e-05
1.28304e-05
1.29652e-05
1.31e-05
1.32349e-05
1.33697e-05
1.35045e-05
1.36393e-05
1.37741e-05
1.3909e-05
1.40438e-05
1.41786e-05
1.43134e-05
1.44482e-05
1.45831e-05
1.47179e-05
1.48527e-05
1.49875e-05
1.51223e-05
1.52572e-05
1.5392e-05
1.55268e-05
1.56616e-05
1.57965e-05
1.59313e-05
1.60661e-05
1.62009e-05
1.63357e-05
1.64706e-05
1.66054e-05
1.67402e-05
1.6875e-05
1.70098e-05
1.71447e-05
1.72795e-05
1.74143e-05
1.75491e-05
1.76839e-05
1.78188e-05
1.79536e-05
1.80884e-05
1.82232e-05
1.8358e-05
1.84929e-05
1.86277e-05
1.87625e-05
1.88973e-05
1.90321e-05
1.9167e-05
1.93018e-05
1.94366e-05
1.95714e-05
1.97062e-05
1.98411e-05
1.99759e-05
2.01107e-05
2.02455e-05
2.03803e-05
2.05152e-05
2.065e-05
2.07848e-05
2.09196e-05
2.10544e-05
2.11893e-05
2.13241e-05
2.14589e-05
2.15937e-05
2.17285e-05
2.18634e-05
2.19982e-05
2.2133e-05
2.22678e-05
2.24027e-05
2.25375e-05
2.26723e-05
2.28071e-05
2.29419e-05
5.81974e-06
5.95456e-06
6.08938e-06
6.2242e-06
6.35902e-06
6.49384e-06
6.62866e-06
6.76348e-06
6.8983e-06
7.03313e-06
7.16795e-06
7.30277e-06
7.43759e-06
7.57241e-06
7.70723e-06
7.84205e-06
7.97687e-06
8.11169e-06
8.24651e-06
8.38133e-06
8.51615e-06
8.65097e-06
8.78579e-06
8.92061e-06
9.05543e-06
9.19025e-06
9.32507e-06
9.45989e-06
9.59471e-06
9.72953e-06
9.86435e-06
9.99917e-06
1.0134e-05
1.02688e-05
1.04036e-05
1.05385e-05
1.06733e-05
1.08081e-05
1.09429e-05
1.10777e-05
1.12126e-05
1.13474e-05
1.14822e-05
1.1617e-05
1.17518e-05
1.18867e-05
1.20215e-05
1.21563e-05
1.22911e-05
1.24259e-05
1.25608e-05
1.26956e-05
1.28304e-05
1.29652e-05
1.31e-05
1.32349e-05
1.33697e-05
1.35045e-05
1.36393e-05
1.37741e-05
1.3909e-05
1.40438e-05
1.41786e-05
1.43134e-05
1.44482e-05
1.45831e-05
1.47179e-05
1.48527e-05
1.49875e-05
1.51223e-05
1.52572e-05
1.5392e-05
1.55268e-05
1.56616e-05
1.57965e-05
1.59313e-05
1.60661e-05
1.62009e-05
1.63357e-05
1.64706e-05
1.66054e-05
1.67402e-05
1.6875e-05
1.70098e-05
1.71447e-05
1.72795e-05
1.74143e-05
1.75491e-05
1.76839e-05
1.78188e-05
1.79536e-05
1.80884e-05
1.82232e-05
1.8358e-05
1.84929e-05
1.86277e-05
1.87625e-05
1.88973e-05
1.90321e-05
1.9167e-05
1.93018e-05
1.94366e-05
1.95714e-05
1.97062e-05
1.98411e-05
1.99759e-05
2.01107e-05
2.02455e-05
2.03803e-05
2.05152e-05
2.065e-05
2.07848e-05
2.09196e-05
2.10544e-05
2.11893e-05
2.13241e-05
2.14589e-05
2.15937e-05
2.17285e-05
2.18634e-05
2.19982e-05
2.2133e-05
2.22678e-05
2.24027e-05
2.25375e-05
2.26723e-05
2.28071e-05
2.29419e-05
5.81974e-06
5.95456e-06
6.08938e-06
6.2242e-06
6.35902e-06
6.49384e-06
6.62866e-06
6.76348e-06
6.89831e-06
7.03313e-06
7.16795e-06
7.30277e-06
7.43759e-06
7.57241e-06
7.70723e-06
7.84205e-06
7.97687e-06
8.11169e-06
8.24651e-06
8.38133e-06
8.51615e-06
8.65097e-06
8.78579e-06
8.92061e-06
9.05543e-06
9.19025e-06
9.32507e-06
9.45989e-06
9.59471e-06
9.72953e-06
9.86435e-06
9.99917e-06
1.0134e-05
1.02688e-05
1.04036e-05
1.05385e-05
1.06733e-05
1.08081e-05
1.09429e-05
1.10777e-05
1.12126e-05
1.13474e-05
1.14822e-05
1.1617e-05
1.17518e-05
1.18867e-05
1.20215e-05
1.21563e-05
1.22911e-05
1.24259e-05
1.25608e-05
1.26956e-05
1.28304e-05
1.29652e-05
1.31e-05
1.32349e-05
1.33697e-05
1.35045e-05
1.36393e-05
1.37741e-05
1.3909e-05
1.40438e-05
1.41786e-05
1.43134e-05
1.44482e-05
1.45831e-05
1.47179e-05
1.48527e-05
1.49875e-05
1.51223e-05
1.52572e-05
1.5392e-05
1.55268e-05
1.56616e-05
1.57965e-05
1.59313e-05
1.60661e-05
1.62009e-05
1.63357e-05
1.64706e-05
1.66054e-05
1.67402e-05
1.6875e-05
1.70098e-05
1.71447e-05
1.72795e-05
1.74143e-05
1.75491e-05
1.76839e-05
1.78188e-05
1.79536e-05
1.80884e-05
1.82232e-05
1.8358e-05
1.84929e-05
1.86277e-05
1.87625e-05
1.88973e-05
1.90321e-05
1.9167e-05
1.93018e-05
1.94366e-05
1.95714e-05
1.97062e-05
1.98411e-05
1.99759e-05
2.01107e-05
2.02455e-05
2.03803e-05
2.05152e-05
2.065e-05
2.07848e-05
2.09196e-05
2.10544e-05
2.11893e-05
2.13241e-05
2.14589e-05
2.15937e-05
2.17285e-05
2.18634e-05
2.19982e-05
2.2133e-05
2.22678e-05
2.24027e-05
2.25375e-05
2.26723e-05
2.28071e-05
2.29419e-05
5.81974e-06
5.95456e-06
6.08938e-06
6.2242e-06
6.35902e-06
6.49384e-06
6.62866e-06
6.76348e-06
6.89831e-06
7.03313e-06
7.16795e-06
7.30277e-06
7.43759e-06
7.57241e-06
7.70723e-06
7.84205e-06
7.97687e-06
8.11169e-06
8.24651e-06
8.38133e-06
8.51615e-06
8.65097e-06
8.78579e-06
8.92061e-06
9.05543e-06
9.19025e-06
9.32507e-06
9.45989e-06
9.59471e-06
9.72953e-06
9.86435e-06
9.99917e-06
1.0134e-05
1.02688e-05
1.04036e-05
1.05385e-05
1.06733e-05
1.08081e-05
1.09429e-05
1.10777e-05
1.12126e-05
1.13474e-05
1.14822e-05
1.1617e-05
1.17518e-05
1.18867e-05
1.20215e-05
1.21563e-05
1.22911e-05
1.24259e-05
1.25608e-05
1.26956e-05
1.28304e-05
1.29652e-05
1.31e-05
1.32349e-05
1.33697e-05
1.35045e-05
1.36393e-05
1.37741e-05
1.3909e-05
1.40438e-05
1.41786e-05
1.43134e-05
1.44482e-05
1.45831e-05
1.47179e-05
1.48527e-05
1.49875e-05
1.51223e-05
1.52572e-05
1.5392e-05
1.55268e-05
1.56616e-05
1.57965e-05
1.59313e-05
1.60661e-05
1.62009e-05
1.63357e-05
1.64706e-05
1.66054e-05
1.67402e-05
1.6875e-05
1.70098e-05
1.71447e-05
1.72795e-05
1.74143e-05
1.75491e-05
1.76839e-05
1.78188e-05
1.79536e-05
1.80884e-05
1.82232e-05
1.8358e-05
1.84929e-05
1.86277e-05
1.87625e-05
1.88973e-05
1.90321e-05
1.9167e-05
1.93018e-05
1.94366e-05
1.95714e-05
1.97062e-05
1.98411e-05
1.99759e-05
2.01107e-05
2.02455e-05
2.03803e-05
2.05152e-05
2.065e-05
2.07848e-05
2.09196e-05
2.10544e-05
2.11893e-05
2.13241e-05
2.14589e-05
2.15937e-05
2.17285e-05
2.18634e-05
2.19982e-05
2.2133e-05
2.22678e-05
2.24027e-05
2.25375e-05
2.26723e-05
2.28071e-05
2.29419e-05
5.81974e-06
5.95456e-06
6.08938e-06
6.2242e-06
6.35902e-06
6.49384e-06
6.62866e-06
6.76348e-06
6.89831e-06
7.03313e-06
7.16795e-06
7.30277e-06
7.43759e-06
7.57241e-06
7.70723e-06
7.84205e-06
7.97687e-06
8.11169e-06
8.24651e-06
8.38133e-06
8.51615e-06
8.65097e-06
8.78579e-06
8.92061e-06
9.05543e-06
9.19025e-06
9.32507e-06
9.45989e-06
9.59471e-06
9.72953e-06
9.86435e-06
9.99917e-06
1.0134e-05
1.02688e-05
1.04036e-05
1.05385e-05
1.06733e-05
1.08081e-05
1.09429e-05
1.10777e-05
1.12126e-05
1.13474e-05
1.14822e-05
1.1617e-05
1.17518e-05
1.18867e-05
1.20215e-05
1.21563e-05
1.22911e-05
1.24259e-05
1.25608e-05
1.26956e-05
1.28304e-05
1.29652e-05
1.31e-05
1.32349e-05
1.33697e-05
1.35045e-05
1.36393e-05
1.37741e-05
1.3909e-05
1.40438e-05
1.41786e-05
1.43134e-05
1.44482e-05
1.45831e-05
1.47179e-05
1.48527e-05
1.49875e-05
1.51223e-05
1.52572e-05
1.5392e-05
1.55268e-05
1.56616e-05
1.57965e-05
1.59313e-05
1.60661e-05
1.62009e-05
1.63357e-05
1.64706e-05
1.66054e-05
1.67402e-05
1.6875e-05
1.70098e-05
1.71447e-05
1.72795e-05
1.74143e-05
1.75491e-05
1.76839e-05
1.78188e-05
1.79536e-05
1.80884e-05
1.82232e-05
1.8358e-05
1.84929e-05
1.86277e-05
1.87625e-05
1.88973e-05
1.90321e-05
1.9167e-05
1.93018e-05
1.94366e-05
1.95714e-05
1.97062e-05
1.98411e-05
1.99759e-05
2.01107e-05
2.02455e-05
2.03803e-05
2.05152e-05
2.065e-05
2.07848e-05
2.09196e-05
2.10544e-05
2.11893e-05
2.13241e-05
2.14589e-05
2.15937e-05
2.17285e-05
2.18634e-05
2.19982e-05
2.2133e-05
2.22678e-05
2.24027e-05
2.25375e-05
2.26723e-05
2.28071e-05
2.29419e-05
5.81974e-06
5.95456e-06
6.08938e-06
6.2242e-06
6.35902e-06
6.49384e-06
6.62866e-06
6.76348e-06
6.89831e-06
7.03313e-06
7.16795e-06
7.30277e-06
7.43759e-06
7.57241e-06
7.70723e-06
7.84205e-06
7.97687e-06
8.11169e-06
8.24651e-06
8.38133e-06
8.51615e-06
8.65097e-06
8.78579e-06
8.92061e-06
9.05543e-06
9.19025e-06
9.32507e-06
9.45989e-06
9.59471e-06
9.72953e-06
9.86435e-06
9.99917e-06
1.0134e-05
1.02688e-05
1.04036e-05
1.05385e-05
1.06733e-05
1.08081e-05
1.09429e-05
1.10777e-05
1.12126e-05
1.13474e-05
1.14822e-05
1.1617e-05
1.17518e-05
1.18867e-05
1.20215e-05
1.21563e-05
1.22911e-05
1.24259e-05
1.25608e-05
1.26956e-05
1.28304e-05
1.29652e-05
1.31e-05
1.32349e-05
1.33697e-05
1.35045e-05
1.36393e-05
1.37741e-05
1.3909e-05
1.40438e-05
1.41786e-05
1.43134e-05
1.44482e-05
1.45831e-05
1.47179e-05
1.48527e-05
1.49875e-05
1.51224e-05
1.52572e-05
1.5392e-05
1.55268e-05
1.56616e-05
1.57965e-05
1.59313e-05
1.60661e-05
1.62009e-05
1.63357e-05
1.64706e-05
1.66054e-05
1.67402e-05
1.6875e-05
1.70098e-05
1.71447e-05
1.72795e-05
1.74143e-05
1.75491e-05
1.76839e-05
1.78188e-05
1.79536e-05
1.80884e-05
1.82232e-05
1.8358e-05
1.84929e-05
1.86277e-05
1.87625e-05
1.88973e-05
1.90321e-05
1.9167e-05
1.93018e-05
1.94366e-05
1.95714e-05
1.97062e-05
1.98411e-05
1.99759e-05
2.01107e-05
2.02455e-05
2.03803e-05
2.05152e-05
2.065e-05
2.07848e-05
2.09196e-05
2.10544e-05
2.11893e-05
2.13241e-05
2.14589e-05
2.15937e-05
2.17285e-05
2.18634e-05
2.19982e-05
2.2133e-05
2.22678e-05
2.24027e-05
2.25375e-05
2.26723e-05
2.28071e-05
2.29419e-05
5.81974e-06
5.95456e-06
6.08938e-06
6.2242e-06
6.35902e-06
6.49384e-06
6.62866e-06
6.76348e-06
6.89831e-06
7.03313e-06
7.16795e-06
7.30277e-06
7.43759e-06
7.57241e-06
7.70723e-06
7.84205e-06
7.97687e-06
8.11169e-06
8.24651e-06
8.38133e-06
8.51615e-06
8.65097e-06
8.78579e-06
8.92061e-06
9.05543e-06
9.19025e-06
9.32507e-06
9.45989e-06
9.59471e-06
9.72953e-06
9.86435e-06
9.99917e-06
1.0134e-05
1.02688e-05
1.04036e-05
1.05385e-05
1.06733e-05
1.08081e-05
1.09429e-05
1.10777e-05
1.12126e-05
1.13474e-05
1.14822e-05
1.1617e-05
1.17518e-05
1.18867e-05
1.20215e-05
1.21563e-05
1.22911e-05
1.24259e-05
1.25608e-05
1.26956e-05
1.28304e-05
1.29652e-05
1.31e-05
1.32349e-05
1.33697e-05
1.35045e-05
1.36393e-05
1.37741e-05
1.3909e-05
1.40438e-05
1.41786e-05
1.43134e-05
1.44482e-05
1.45831e-05
1.47179e-05
1.48527e-05
1.49875e-05
1.51224e-05
1.52572e-05
1.5392e-05
1.55268e-05
1.56616e-05
1.57965e-05
1.59313e-05
1.60661e-05
1.62009e-05
1.63357e-05
1.64706e-05
1.66054e-05
1.67402e-05
1.6875e-05
1.70098e-05
1.71447e-05
1.72795e-05
1.74143e-05
1.75491e-05
1.76839e-05
1.78188e-05
1.79536e-05
1.80884e-05
1.82232e-05
1.8358e-05
1.84929e-05
1.86277e-05
1.87625e-05
1.88973e-05
1.90321e-05
1.9167e-05
1.93018e-05
1.94366e-05
1.95714e-05
1.97062e-05
1.98411e-05
1.99759e-05
2.01107e-05
2.02455e-05
2.03803e-05
2.05152e-05
2.065e-05
2.07848e-05
2.09196e-05
2.10544e-05
2.11893e-05
2.13241e-05
2.14589e-05
2.15937e-05
2.17285e-05
2.18634e-05
2.19982e-05
2.2133e-05
2.22678e-05
2.24027e-05
2.25375e-05
2.26723e-05
2.28071e-05
2.29419e-05
5.81974e-06
5.95456e-06
6.08938e-06
6.2242e-06
6.35902e-06
6.49384e-06
6.62866e-06
6.76348e-06
6.89831e-06
7.03313e-06
7.16795e-06
7.30277e-06
7.43759e-06
7.57241e-06
7.70723e-06
7.84205e-06
7.97687e-06
8.11169e-06
8.24651e-06
8.38133e-06
8.51615e-06
8.65097e-06
8.78579e-06
8.92061e-06
9.05543e-06
9.19025e-06
9.32507e-06
9.45989e-06
9.59471e-06
9.72953e-06
9.86435e-06
9.99917e-06
1.0134e-05
1.02688e-05
1.04036e-05
1.05385e-05
1.06733e-05
1.08081e-05
1.09429e-05
1.10777e-05
1.12126e-05
1.13474e-05
1.14822e-05
1.1617e-05
1.17518e-05
1.18867e-05
1.20215e-05
1.21563e-05
1.22911e-05
1.24259e-05
1.25608e-05
1.26956e-05
1.28304e-05
1.29652e-05
1.31e-05
1.32349e-05
1.33697e-05
1.35045e-05
1.36393e-05
1.37741e-05
1.3909e-05
1.40438e-05
1.41786e-05
1.43134e-05
1.44482e-05
1.45831e-05
1.47179e-05
1.48527e-05
1.49875e-05
1.51223e-05
1.52572e-05
1.5392e-05
1.55268e-05
1.56616e-05
1.57965e-05
1.59313e-05
1.60661e-05
1.62009e-05
1.63357e-05
1.64706e-05
1.66054e-05
1.67402e-05
1.6875e-05
1.70098e-05
1.71447e-05
1.72795e-05
1.74143e-05
1.75491e-05
1.76839e-05
1.78188e-05
1.79536e-05
1.80884e-05
1.82232e-05
1.8358e-05
1.84929e-05
1.86277e-05
1.87625e-05
1.88973e-05
1.90321e-05
1.9167e-05
1.93018e-05
1.94366e-05
1.95714e-05
1.97062e-05
1.98411e-05
1.99759e-05
2.01107e-05
2.02455e-05
2.03803e-05
2.05152e-05
2.065e-05
2.07848e-05
2.09196e-05
2.10544e-05
2.11893e-05
2.13241e-05
2.14589e-05
2.15937e-05
2.17285e-05
2.18634e-05
2.19982e-05
2.2133e-05
2.22678e-05
2.24027e-05
2.25375e-05
2.26723e-05
2.28071e-05
2.29419e-05
5.81974e-06
5.95456e-06
6.08938e-06
6.2242e-06
6.35902e-06
6.49384e-06
6.62866e-06
6.76348e-06
6.89831e-06
7.03313e-06
7.16795e-06
7.30277e-06
7.43759e-06
7.57241e-06
7.70723e-06
7.84205e-06
7.97687e-06
8.11169e-06
8.24651e-06
8.38133e-06
8.51615e-06
8.65097e-06
8.78579e-06
8.92061e-06
9.05543e-06
9.19025e-06
9.32507e-06
9.45989e-06
9.59471e-06
9.72953e-06
9.86435e-06
9.99917e-06
1.0134e-05
1.02688e-05
1.04036e-05
1.05385e-05
1.06733e-05
1.08081e-05
1.09429e-05
1.10777e-05
1.12126e-05
1.13474e-05
1.14822e-05
1.1617e-05
1.17518e-05
1.18867e-05
1.20215e-05
1.21563e-05
1.22911e-05
1.24259e-05
1.25608e-05
1.26956e-05
1.28304e-05
1.29652e-05
1.31e-05
1.32349e-05
1.33697e-05
1.35045e-05
1.36393e-05
1.37741e-05
1.3909e-05
1.40438e-05
1.41786e-05
1.43134e-05
1.44482e-05
1.45831e-05
1.47179e-05
1.48527e-05
1.49875e-05
1.51224e-05
1.52572e-05
1.5392e-05
1.55268e-05
1.56616e-05
1.57965e-05
1.59313e-05
1.60661e-05
1.62009e-05
1.63357e-05
1.64706e-05
1.66054e-05
1.67402e-05
1.6875e-05
1.70098e-05
1.71447e-05
1.72795e-05
1.74143e-05
1.75491e-05
1.76839e-05
1.78188e-05
1.79536e-05
1.80884e-05
1.82232e-05
1.8358e-05
1.84929e-05
1.86277e-05
1.87625e-05
1.88973e-05
1.90321e-05
1.9167e-05
1.93018e-05
1.94366e-05
1.95714e-05
1.97062e-05
1.98411e-05
1.99759e-05
2.01107e-05
2.02455e-05
2.03803e-05
2.05152e-05
2.065e-05
2.07848e-05
2.09196e-05
2.10544e-05
2.11893e-05
2.13241e-05
2.14589e-05
2.15937e-05
2.17285e-05
2.18634e-05
2.19982e-05
2.2133e-05
2.22678e-05
2.24027e-05
2.25375e-05
2.26723e-05
2.28071e-05
2.29419e-05
5.81974e-06
5.95456e-06
6.08938e-06
6.2242e-06
6.35902e-06
6.49384e-06
6.62866e-06
6.76349e-06
6.89831e-06
7.03313e-06
7.16795e-06
7.30277e-06
7.43759e-06
7.57241e-06
7.70723e-06
7.84205e-06
7.97687e-06
8.11169e-06
8.24651e-06
8.38133e-06
8.51615e-06
8.65097e-06
8.78579e-06
8.92061e-06
9.05543e-06
9.19025e-06
9.32507e-06
9.45989e-06
9.59471e-06
9.72953e-06
9.86435e-06
9.99917e-06
1.0134e-05
1.02688e-05
1.04036e-05
1.05385e-05
1.06733e-05
1.08081e-05
1.09429e-05
1.10777e-05
1.12126e-05
1.13474e-05
1.14822e-05
1.1617e-05
1.17518e-05
1.18867e-05
1.20215e-05
1.21563e-05
1.22911e-05
1.24259e-05
1.25608e-05
1.26956e-05
1.28304e-05
1.29652e-05
1.31e-05
1.32349e-05
1.33697e-05
1.35045e-05
1.36393e-05
1.37741e-05
1.3909e-05
1.40438e-05
1.41786e-05
1.43134e-05
1.44482e-05
1.45831e-05
1.47179e-05
1.48527e-05
1.49875e-05
1.51224e-05
1.52572e-05
1.5392e-05
1.55268e-05
1.56616e-05
1.57965e-05
1.59313e-05
1.60661e-05
1.62009e-05
1.63357e-05
1.64706e-05
1.66054e-05
1.67402e-05
1.6875e-05
1.70098e-05
1.71447e-05
1.72795e-05
1.74143e-05
1.75491e-05
1.76839e-05
1.78188e-05
1.79536e-05
1.80884e-05
1.82232e-05
1.8358e-05
1.84929e-05
1.86277e-05
1.87625e-05
1.88973e-05
1.90321e-05
1.9167e-05
1.93018e-05
1.94366e-05
1.95714e-05
1.97062e-05
1.98411e-05
1.99759e-05
2.01107e-05
2.02455e-05
2.03803e-05
2.05152e-05
2.065e-05
2.07848e-05
2.09196e-05
2.10544e-05
2.11893e-05
2.13241e-05
2.14589e-05
2.15937e-05
2.17286e-05
2.18634e-05
2.19982e-05
2.2133e-05
2.22678e-05
2.24027e-05
2.25375e-05
2.26723e-05
2.28071e-05
2.29419e-05
5.81974e-06
5.95456e-06
6.08938e-06
6.2242e-06
6.35902e-06
6.49384e-06
6.62866e-06
6.76349e-06
6.89831e-06
7.03313e-06
7.16795e-06
7.30277e-06
7.43759e-06
7.57241e-06
7.70723e-06
7.84205e-06
7.97687e-06
8.11169e-06
8.24651e-06
8.38133e-06
8.51615e-06
8.65097e-06
8.78579e-06
8.92061e-06
9.05543e-06
9.19025e-06
9.32507e-06
9.45989e-06
9.59471e-06
9.72953e-06
9.86435e-06
9.99918e-06
1.0134e-05
1.02688e-05
1.04036e-05
1.05385e-05
1.06733e-05
1.08081e-05
1.09429e-05
1.10777e-05
1.12126e-05
1.13474e-05
1.14822e-05
1.1617e-05
1.17518e-05
1.18867e-05
1.20215e-05
1.21563e-05
1.22911e-05
1.24259e-05
1.25608e-05
1.26956e-05
1.28304e-05
1.29652e-05
1.31e-05
1.32349e-05
1.33697e-05
1.35045e-05
1.36393e-05
1.37741e-05
1.3909e-05
1.40438e-05
1.41786e-05
1.43134e-05
1.44482e-05
1.45831e-05
1.47179e-05
1.48527e-05
1.49875e-05
1.51224e-05
1.52572e-05
1.5392e-05
1.55268e-05
1.56616e-05
1.57965e-05
1.59313e-05
1.60661e-05
1.62009e-05
1.63357e-05
1.64706e-05
1.66054e-05
1.67402e-05
1.6875e-05
1.70098e-05
1.71447e-05
1.72795e-05
1.74143e-05
1.75491e-05
1.76839e-05
1.78188e-05
1.79536e-05
1.80884e-05
1.82232e-05
1.8358e-05
1.84929e-05
1.86277e-05
1.87625e-05
1.88973e-05
1.90321e-05
1.9167e-05
1.93018e-05
1.94366e-05
1.95714e-05
1.97062e-05
1.98411e-05
1.99759e-05
2.01107e-05
2.02455e-05
2.03803e-05
2.05152e-05
2.065e-05
2.07848e-05
2.09196e-05
2.10544e-05
2.11893e-05
2.13241e-05
2.14589e-05
2.15937e-05
2.17285e-05
2.18634e-05
2.19982e-05
2.2133e-05
2.22678e-05
2.24027e-05
2.25375e-05
2.26723e-05
2.28071e-05
2.29419e-05
5.81974e-06
5.95456e-06
6.08938e-06
6.2242e-06
6.35902e-06
6.49384e-06
6.62866e-06
6.76349e-06
6.89831e-06
7.03313e-06
7.16795e-06
7.30277e-06
7.43759e-06
7.57241e-06
7.70723e-06
7.84205e-06
7.97687e-06
8.11169e-06
8.24651e-06
8.38133e-06
8.51615e-06
8.65097e-06
8.78579e-06
8.92061e-06
9.05543e-06
9.19025e-06
9.32507e-06
9.45989e-06
9.59471e-06
9.72953e-06
9.86435e-06
9.99918e-06
1.0134e-05
1.02688e-05
1.04036e-05
1.05385e-05
1.06733e-05
1.08081e-05
1.09429e-05
1.10777e-05
1.12126e-05
1.13474e-05
1.14822e-05
1.1617e-05
1.17518e-05
1.18867e-05
1.20215e-05
1.21563e-05
1.22911e-05
1.24259e-05
1.25608e-05
1.26956e-05
1.28304e-05
1.29652e-05
1.31e-05
1.32349e-05
1.33697e-05
1.35045e-05
1.36393e-05
1.37741e-05
1.3909e-05
1.40438e-05
1.41786e-05
1.43134e-05
1.44482e-05
1.45831e-05
1.47179e-05
1.48527e-05
1.49875e-05
1.51224e-05
1.52572e-05
1.5392e-05
1.55268e-05
1.56616e-05
1.57965e-05
1.59313e-05
1.60661e-05
1.62009e-05
1.63357e-05
1.64706e-05
1.66054e-05
1.67402e-05
1.6875e-05
1.70098e-05
1.71447e-05
1.72795e-05
1.74143e-05
1.75491e-05
1.76839e-05
1.78188e-05
1.79536e-05
1.80884e-05
1.82232e-05
1.8358e-05
1.84929e-05
1.86277e-05
1.87625e-05
1.88973e-05
1.90321e-05
1.9167e-05
1.93018e-05
1.94366e-05
1.95714e-05
1.97062e-05
1.98411e-05
1.99759e-05
2.01107e-05
2.02455e-05
2.03803e-05
2.05152e-05
2.065e-05
2.07848e-05
2.09196e-05
2.10544e-05
2.11893e-05
2.13241e-05
2.14589e-05
2.15937e-05
2.17286e-05
2.18634e-05
2.19982e-05
2.2133e-05
2.22678e-05
2.24027e-05
2.25375e-05
2.26723e-05
2.28071e-05
2.29419e-05
5.81974e-06
5.95456e-06
6.08938e-06
6.2242e-06
6.35902e-06
6.49384e-06
6.62866e-06
6.76349e-06
6.89831e-06
7.03313e-06
7.16795e-06
7.30277e-06
7.43759e-06
7.57241e-06
7.70723e-06
7.84205e-06
7.97687e-06
8.11169e-06
8.24651e-06
8.38133e-06
8.51615e-06
8.65097e-06
8.78579e-06
8.92061e-06
9.05543e-06
9.19025e-06
9.32507e-06
9.45989e-06
9.59471e-06
9.72953e-06
9.86435e-06
9.99918e-06
1.0134e-05
1.02688e-05
1.04036e-05
1.05385e-05
1.06733e-05
1.08081e-05
1.09429e-05
1.10777e-05
1.12126e-05
1.13474e-05
1.14822e-05
1.1617e-05
1.17518e-05
1.18867e-05
1.20215e-05
1.21563e-05
1.22911e-05
1.24259e-05
1.25608e-05
1.26956e-05
1.28304e-05
1.29652e-05
1.31e-05
1.32349e-05
1.33697e-05
1.35045e-05
1.36393e-05
1.37741e-05
1.3909e-05
1.40438e-05
1.41786e-05
1.43134e-05
1.44482e-05
1.45831e-05
1.47179e-05
1.48527e-05
1.49875e-05
1.51224e-05
1.52572e-05
1.5392e-05
1.55268e-05
1.56616e-05
1.57965e-05
1.59313e-05
1.60661e-05
1.62009e-05
1.63357e-05
1.64706e-05
1.66054e-05
1.67402e-05
1.6875e-05
1.70098e-05
1.71447e-05
1.72795e-05
1.74143e-05
1.75491e-05
1.76839e-05
1.78188e-05
1.79536e-05
1.80884e-05
1.82232e-05
1.8358e-05
1.84929e-05
1.86277e-05
1.87625e-05
1.88973e-05
1.90321e-05
1.9167e-05
1.93018e-05
1.94366e-05
1.95714e-05
1.97062e-05
1.98411e-05
1.99759e-05
2.01107e-05
2.02455e-05
2.03803e-05
2.05152e-05
2.065e-05
2.07848e-05
2.09196e-05
2.10544e-05
2.11893e-05
2.13241e-05
2.14589e-05
2.15937e-05
2.17286e-05
2.18634e-05
2.19982e-05
2.2133e-05
2.22678e-05
2.24027e-05
2.25375e-05
2.26723e-05
2.28071e-05
2.29419e-05
5.81974e-06
5.95456e-06
6.08938e-06
6.2242e-06
6.35902e-06
6.49384e-06
6.62866e-06
6.76349e-06
6.89831e-06
7.03313e-06
7.16795e-06
7.30277e-06
7.43759e-06
7.57241e-06
7.70723e-06
7.84205e-06
7.97687e-06
8.11169e-06
8.24651e-06
8.38133e-06
8.51615e-06
8.65097e-06
8.78579e-06
8.92061e-06
9.05543e-06
9.19025e-06
9.32507e-06
9.45989e-06
9.59471e-06
9.72953e-06
9.86435e-06
9.99918e-06
1.0134e-05
1.02688e-05
1.04036e-05
1.05385e-05
1.06733e-05
1.08081e-05
1.09429e-05
1.10777e-05
1.12126e-05
1.13474e-05
1.14822e-05
1.1617e-05
1.17518e-05
1.18867e-05
1.20215e-05
1.21563e-05
1.22911e-05
1.24259e-05
1.25608e-05
1.26956e-05
1.28304e-05
1.29652e-05
1.31e-05
1.32349e-05
1.33697e-05
1.35045e-05
1.36393e-05
1.37741e-05
1.3909e-05
1.40438e-05
1.41786e-05
1.43134e-05
1.44482e-05
1.45831e-05
1.47179e-05
1.48527e-05
1.49875e-05
1.51224e-05
1.52572e-05
1.5392e-05
1.55268e-05
1.56616e-05
1.57965e-05
1.59313e-05
1.60661e-05
1.62009e-05
1.63357e-05
1.64706e-05
1.66054e-05
1.67402e-05
1.6875e-05
1.70098e-05
1.71447e-05
1.72795e-05
1.74143e-05
1.75491e-05
1.76839e-05
1.78188e-05
1.79536e-05
1.80884e-05
1.82232e-05
1.8358e-05
1.84929e-05
1.86277e-05
1.87625e-05
1.88973e-05
1.90321e-05
1.9167e-05
1.93018e-05
1.94366e-05
1.95714e-05
1.97062e-05
1.98411e-05
1.99759e-05
2.01107e-05
2.02455e-05
2.03803e-05
2.05152e-05
2.065e-05
2.07848e-05
2.09196e-05
2.10544e-05
2.11893e-05
2.13241e-05
2.14589e-05
2.15937e-05
2.17286e-05
2.18634e-05
2.19982e-05
2.2133e-05
2.22678e-05
2.24027e-05
2.25375e-05
2.26723e-05
2.28071e-05
2.29419e-05
5.81974e-06
5.95456e-06
6.08938e-06
6.2242e-06
6.35902e-06
6.49384e-06
6.62866e-06
6.76349e-06
6.89831e-06
7.03313e-06
7.16795e-06
7.30277e-06
7.43759e-06
7.57241e-06
7.70723e-06
7.84205e-06
7.97687e-06
8.11169e-06
8.24651e-06
8.38133e-06
8.51615e-06
8.65097e-06
8.78579e-06
8.92061e-06
9.05543e-06
9.19025e-06
9.32507e-06
9.45989e-06
9.59471e-06
9.72953e-06
9.86435e-06
9.99918e-06
1.0134e-05
1.02688e-05
1.04036e-05
1.05385e-05
1.06733e-05
1.08081e-05
1.09429e-05
1.10777e-05
1.12126e-05
1.13474e-05
1.14822e-05
1.1617e-05
1.17518e-05
1.18867e-05
1.20215e-05
1.21563e-05
1.22911e-05
1.24259e-05
1.25608e-05
1.26956e-05
1.28304e-05
1.29652e-05
1.31e-05
1.32349e-05
1.33697e-05
1.35045e-05
1.36393e-05
1.37741e-05
1.3909e-05
1.40438e-05
1.41786e-05
1.43134e-05
1.44482e-05
1.45831e-05
1.47179e-05
1.48527e-05
1.49875e-05
1.51224e-05
1.52572e-05
1.5392e-05
1.55268e-05
1.56616e-05
1.57965e-05
1.59313e-05
1.60661e-05
1.62009e-05
1.63357e-05
1.64706e-05
1.66054e-05
1.67402e-05
1.6875e-05
1.70098e-05
1.71447e-05
1.72795e-05
1.74143e-05
1.75491e-05
1.76839e-05
1.78188e-05
1.79536e-05
1.80884e-05
1.82232e-05
1.8358e-05
1.84929e-05
1.86277e-05
1.87625e-05
1.88973e-05
1.90321e-05
1.9167e-05
1.93018e-05
1.94366e-05
1.95714e-05
1.97062e-05
1.98411e-05
1.99759e-05
2.01107e-05
2.02455e-05
2.03803e-05
2.05152e-05
2.065e-05
2.07848e-05
2.09196e-05
2.10544e-05
2.11893e-05
2.13241e-05
2.14589e-05
2.15937e-05
2.17286e-05
2.18634e-05
2.19982e-05
2.2133e-05
2.22678e-05
2.24027e-05
2.25375e-05
2.26723e-05
2.28071e-05
2.29419e-05
5.81974e-06
5.95456e-06
6.08938e-06
6.2242e-06
6.35902e-06
6.49384e-06
6.62866e-06
6.76349e-06
6.89831e-06
7.03313e-06
7.16795e-06
7.30277e-06
7.43759e-06
7.57241e-06
7.70723e-06
7.84205e-06
7.97687e-06
8.11169e-06
8.24651e-06
8.38133e-06
8.51615e-06
8.65097e-06
8.78579e-06
8.92061e-06
9.05543e-06
9.19025e-06
9.32507e-06
9.45989e-06
9.59471e-06
9.72953e-06
9.86435e-06
9.99918e-06
1.0134e-05
1.02688e-05
1.04036e-05
1.05385e-05
1.06733e-05
1.08081e-05
1.09429e-05
1.10777e-05
1.12126e-05
1.13474e-05
1.14822e-05
1.1617e-05
1.17518e-05
1.18867e-05
1.20215e-05
1.21563e-05
1.22911e-05
1.24259e-05
1.25608e-05
1.26956e-05
1.28304e-05
1.29652e-05
1.31e-05
1.32349e-05
1.33697e-05
1.35045e-05
1.36393e-05
1.37741e-05
1.3909e-05
1.40438e-05
1.41786e-05
1.43134e-05
1.44482e-05
1.45831e-05
1.47179e-05
1.48527e-05
1.49875e-05
1.51224e-05
1.52572e-05
1.5392e-05
1.55268e-05
1.56616e-05
1.57965e-05
1.59313e-05
1.60661e-05
1.62009e-05
1.63357e-05
1.64706e-05
1.66054e-05
1.67402e-05
1.6875e-05
1.70098e-05
1.71447e-05
1.72795e-05
1.74143e-05
1.75491e-05
1.76839e-05
1.78188e-05
1.79536e-05
1.80884e-05
1.82232e-05
1.8358e-05
1.84929e-05
1.86277e-05
1.87625e-05
1.88973e-05
1.90321e-05
1.9167e-05
1.93018e-05
1.94366e-05
1.95714e-05
1.97062e-05
1.98411e-05
1.99759e-05
2.01107e-05
2.02455e-05
2.03803e-05
2.05152e-05
2.065e-05
2.07848e-05
2.09196e-05
2.10544e-05
2.11893e-05
2.13241e-05
2.14589e-05
2.15937e-05
2.17286e-05
2.18634e-05
2.19982e-05
2.2133e-05
2.22678e-05
2.24027e-05
2.25375e-05
2.26723e-05
2.28071e-05
2.29419e-05
5.81974e-06
5.95456e-06
6.08938e-06
6.2242e-06
6.35902e-06
6.49384e-06
6.62866e-06
6.76349e-06
6.89831e-06
7.03313e-06
7.16795e-06
7.30277e-06
7.43759e-06
7.57241e-06
7.70723e-06
7.84205e-06
7.97687e-06