/*--------------------------------*- C++ -*----------------------------------*\
| =========                 |                                                 |
| \\      /  F ield         | OpenFOAM: The Open Source CFD Toolbox           |
|  \\    /   O peration     | Version:  1.7.1                                 |
|   \\  /    A nd           | Web:      www.OpenFOAM.com                      |
|    \\/     M anipulation  |                                                 |
\*---------------------------------------------------------------------------*/
FoamFile
{
    version     2.0;
    format      ascii;
    class       volVectorField;
    object      u;
}
// * * * * * * * * * * * * * * * * * * * * * * * * * * * * * * * * * * * * * //

dimensions      [0 0 0 0 0 0 0];

internalField   uniform (1 0 0);

boundaryField
{
    outsideCircle
    {
                type		fixedValue;
                value           uniform (1 0 0);
    }
    insideCircle
    {
                type            fixedValue;//myVelocity;
                value           uniform (0 0 0);
    }
    topAndBottom
    {
       type            empty;
    }
}

// ************************************************************************* //
