/*--------------------------------*- C++ -*----------------------------------*\
| =========                 |                                                 |
| \      /  F ield         | OpenFOAM: The Open Source CFD Toolbox           |
|  \    /   O peration     | Version:  1.5                                   |
|   \  /    A nd           | Web:      http://www.OpenFOAM.org               |
|    \/     M anipulation  |                                                 |
\*---------------------------------------------------------------------------*/

FoamFile
{
    version     2.0;
    format      ascii;
    class       polyBoundaryMesh;
    location    "constant/polyMesh";
    object      boundary;
}

// * * * * * * * * * * * * * * * * * * * * * * * * * * * * * * * * * * * * * //

3
(
    insideCircle
    {
        type                 patch;
        nFaces               12;
        startFace            1056;
    }

    outsideCircle
    {
        type                 patch;
        nFaces               60;
        startFace            1068;
    }

    topAndBottom
    {
        type                 empty;
        nFaces               1456;
        startFace            1128;
    }
)

// ************************************************************************* //


