/*--------------------------------*- C++ -*----------------------------------*\
| =========                 |                                                 |
| \\      /  F ield         | OpenFOAM: The Open Source CFD Toolbox           |
|  \\    /   O peration     | Version:  1.7.1                                 |
|   \\  /    A nd           | Web:      www.OpenFOAM.com                      |
|    \\/     M anipulation  |                                                 |
\*---------------------------------------------------------------------------*/
FoamFile
{
    version     2.0;
    format      ascii;
    class       volScalarField;
    object      Theta;
}
// * * * * * * * * * * * * * * * * * * * * * * * * * * * * * * * * * * * * * //

dimensions      [0 2 -2 0 0 0 0];

internalField   uniform 1;

boundaryField
{
    up
    {
                //type  fixedValue;
                        //type  implicitExtrapolation;
                        type  myTemperature;
			value uniform 1;
    }
    hole
    {
        	//type  fixedValue; 
                        //type  implicitExtrapolation;
                        type  myTemperature;
			value uniform 4;
    }
    frontAndBack
    {
        	type empty;
    }
}

// ************************************************************************* //
