/*--------------------------------*- C++ -*----------------------------------*\
| =========                 |                                                 |
| \\      /  F ield         | foam-extend: Open Source CFD                    |
|  \\    /   O peration     | Version:  3.0                                   |
|   \\  /    A nd           | Web:         http://www.extend-project.de       |
|    \\/     M anipulation  |                                                 |
\*---------------------------------------------------------------------------*/
FoamFile
{
    version     2.0;
    format      ascii;
    class       volVectorField;
    location    "constant/polyMesh";
    object      Centers;
}
// * * * * * * * * * * * * * * * * * * * * * * * * * * * * * * * * * * * * * //

dimensions      [0 0 0 0 0 0 0];

internalField   nonuniform List<vector> 
224
(
(0.239184 0.0235575 0.05)
(0.321754 0.03169 0.05)
(0.414548 0.0408294 0.05)
(0.518769 0.0510943 0.05)
(0.635795 0.0626203 0.05)
(0.767179 0.0755605 0.05)
(0.914673 0.0900874 0.05)
(0.229992 0.0697673 0.05)
(0.309389 0.0938522 0.05)
(0.398617 0.120919 0.05)
(0.498833 0.151319 0.05)
(0.611361 0.185454 0.05)
(0.737697 0.223778 0.05)
(0.879522 0.2668 0.05)
(0.211962 0.113296 0.05)
(0.285135 0.152408 0.05)
(0.367367 0.196362 0.05)
(0.459727 0.245729 0.05)
(0.563434 0.301162 0.05)
(0.679865 0.363395 0.05)
(0.810572 0.43326 0.05)
(0.185786 0.152471 0.05)
(0.249923 0.205106 0.05)
(0.322 0.264259 0.05)
(0.402954 0.330696 0.05)
(0.493854 0.405295 0.05)
(0.595907 0.489048 0.05)
(0.710473 0.58307 0.05)
(0.152471 0.185786 0.05)
(0.205106 0.249923 0.05)
(0.264259 0.322 0.05)
(0.330696 0.402954 0.05)
(0.405295 0.493854 0.05)
(0.489048 0.595907 0.05)
(0.58307 0.710473 0.05)
(0.113296 0.211962 0.05)
(0.152408 0.285135 0.05)
(0.196362 0.367367 0.05)
(0.245729 0.459727 0.05)
(0.301162 0.563434 0.05)
(0.363395 0.679865 0.05)
(0.43326 0.810572 0.05)
(0.0697673 0.229992 0.05)
(0.0938522 0.309389 0.05)
(0.120919 0.398617 0.05)
(0.151319 0.498833 0.05)
(0.185454 0.611361 0.05)
(0.223778 0.737697 0.05)
(0.2668 0.879522 0.05)
(0.0235575 0.239184 0.05)
(0.03169 0.321754 0.05)
(0.0408294 0.414548 0.05)
(0.0510943 0.518769 0.05)
(0.0626203 0.635795 0.05)
(0.0755605 0.767179 0.05)
(0.0900874 0.914673 0.05)
(-0.0235575 0.239184 0.05)
(-0.03169 0.321754 0.05)
(-0.0408294 0.414548 0.05)
(-0.0510943 0.518769 0.05)
(-0.0626203 0.635795 0.05)
(-0.0755605 0.767179 0.05)
(-0.0900874 0.914673 0.05)
(-0.0697673 0.229992 0.05)
(-0.0938522 0.309389 0.05)
(-0.120919 0.398617 0.05)
(-0.151319 0.498833 0.05)
(-0.185454 0.611361 0.05)
(-0.223778 0.737697 0.05)
(-0.2668 0.879522 0.05)
(-0.113296 0.211962 0.05)
(-0.152408 0.285135 0.05)
(-0.196362 0.367367 0.05)
(-0.245729 0.459727 0.05)
(-0.301162 0.563434 0.05)
(-0.363395 0.679865 0.05)
(-0.43326 0.810572 0.05)
(-0.152471 0.185786 0.05)
(-0.205106 0.249923 0.05)
(-0.264259 0.322 0.05)
(-0.330696 0.402954 0.05)
(-0.405295 0.493854 0.05)
(-0.489048 0.595907 0.05)
(-0.58307 0.710473 0.05)
(-0.185786 0.152471 0.05)
(-0.249923 0.205106 0.05)
(-0.322 0.264259 0.05)
(-0.402954 0.330696 0.05)
(-0.493854 0.405295 0.05)
(-0.595907 0.489048 0.05)
(-0.710473 0.58307 0.05)
(-0.211962 0.113296 0.05)
(-0.285135 0.152408 0.05)
(-0.367367 0.196362 0.05)
(-0.459727 0.245729 0.05)
(-0.563434 0.301162 0.05)
(-0.679865 0.363395 0.05)
(-0.810572 0.43326 0.05)
(-0.229992 0.0697673 0.05)
(-0.309389 0.0938522 0.05)
(-0.398617 0.120919 0.05)
(-0.498833 0.151319 0.05)
(-0.611361 0.185454 0.05)
(-0.737697 0.223778 0.05)
(-0.879522 0.2668 0.05)
(-0.239184 0.0235575 0.05)
(-0.321754 0.03169 0.05)
(-0.414548 0.0408294 0.05)
(-0.518769 0.0510943 0.05)
(-0.635795 0.0626203 0.05)
(-0.767179 0.0755605 0.05)
(-0.914673 0.0900874 0.05)
(-0.239184 -0.0235575 0.05)
(-0.321754 -0.03169 0.05)
(-0.414548 -0.0408294 0.05)
(-0.518769 -0.0510943 0.05)
(-0.635795 -0.0626203 0.05)
(-0.767179 -0.0755605 0.05)
(-0.914673 -0.0900874 0.05)
(-0.229992 -0.0697673 0.05)
(-0.309389 -0.0938522 0.05)
(-0.398617 -0.120919 0.05)
(-0.498833 -0.151319 0.05)
(-0.611361 -0.185454 0.05)
(-0.737697 -0.223778 0.05)
(-0.879522 -0.2668 0.05)
(-0.211962 -0.113296 0.05)
(-0.285135 -0.152408 0.05)
(-0.367367 -0.196362 0.05)
(-0.459727 -0.245729 0.05)
(-0.563434 -0.301162 0.05)
(-0.679865 -0.363395 0.05)
(-0.810572 -0.43326 0.05)
(-0.185786 -0.152471 0.05)
(-0.249923 -0.205106 0.05)
(-0.322 -0.264259 0.05)
(-0.402954 -0.330696 0.05)
(-0.493854 -0.405295 0.05)
(-0.595907 -0.489048 0.05)
(-0.710473 -0.58307 0.05)
(-0.152471 -0.185786 0.05)
(-0.205106 -0.249923 0.05)
(-0.264259 -0.322 0.05)
(-0.330696 -0.402954 0.05)
(-0.405295 -0.493854 0.05)
(-0.489048 -0.595907 0.05)
(-0.58307 -0.710473 0.05)
(-0.113296 -0.211962 0.05)
(-0.152408 -0.285135 0.05)
(-0.196362 -0.367367 0.05)
(-0.245729 -0.459727 0.05)
(-0.301162 -0.563434 0.05)
(-0.363395 -0.679865 0.05)
(-0.43326 -0.810572 0.05)
(-0.0697673 -0.229992 0.05)
(-0.0938522 -0.309389 0.05)
(-0.120919 -0.398617 0.05)
(-0.151319 -0.498833 0.05)
(-0.185454 -0.611361 0.05)
(-0.223778 -0.737697 0.05)
(-0.2668 -0.879522 0.05)
(-0.0235575 -0.239184 0.05)
(-0.03169 -0.321754 0.05)
(-0.0408294 -0.414548 0.05)
(-0.0510943 -0.518769 0.05)
(-0.0626203 -0.635795 0.05)
(-0.0755605 -0.767179 0.05)
(-0.0900874 -0.914673 0.05)
(0.0235575 -0.239184 0.05)
(0.03169 -0.321754 0.05)
(0.0408294 -0.414548 0.05)
(0.0510943 -0.518769 0.05)
(0.0626203 -0.635795 0.05)
(0.0755605 -0.767179 0.05)
(0.0900874 -0.914673 0.05)
(0.0697673 -0.229992 0.05)
(0.0938522 -0.309389 0.05)
(0.120919 -0.398617 0.05)
(0.151319 -0.498833 0.05)
(0.185454 -0.611361 0.05)
(0.223778 -0.737697 0.05)
(0.2668 -0.879522 0.05)
(0.113296 -0.211962 0.05)
(0.152408 -0.285135 0.05)
(0.196362 -0.367367 0.05)
(0.245729 -0.459727 0.05)
(0.301162 -0.563434 0.05)
(0.363395 -0.679865 0.05)
(0.43326 -0.810572 0.05)
(0.152471 -0.185786 0.05)
(0.205106 -0.249923 0.05)
(0.264259 -0.322 0.05)
(0.330696 -0.402954 0.05)
(0.405295 -0.493854 0.05)
(0.489048 -0.595907 0.05)
(0.58307 -0.710473 0.05)
(0.185786 -0.152471 0.05)
(0.249923 -0.205106 0.05)
(0.322 -0.264259 0.05)
(0.402954 -0.330696 0.05)
(0.493854 -0.405295 0.05)
(0.595907 -0.489048 0.05)
(0.710473 -0.58307 0.05)
(0.211962 -0.113296 0.05)
(0.285135 -0.152408 0.05)
(0.367367 -0.196362 0.05)
(0.459727 -0.245729 0.05)
(0.563434 -0.301162 0.05)
(0.679865 -0.363395 0.05)
(0.810572 -0.43326 0.05)
(0.229992 -0.0697673 0.05)
(0.309389 -0.0938522 0.05)
(0.398617 -0.120919 0.05)
(0.498833 -0.151319 0.05)
(0.611361 -0.185454 0.05)
(0.737697 -0.223778 0.05)
(0.879522 -0.2668 0.05)
(0.239184 -0.0235575 0.05)
(0.321754 -0.03169 0.05)
(0.414548 -0.0408294 0.05)
(0.518769 -0.0510943 0.05)
(0.635795 -0.0626203 0.05)
(0.767179 -0.0755605 0.05)
(0.914673 -0.0900874 0.05)
)
;

boundaryField
{
    out
    {
        type            calculated;
        value           uniform (0 0 0);
    }
    in
    {
        type            calculated;
        value           uniform (0 0 0);
    }
    frontAndBack
    {
        type            empty;
    }
}


// ************************************************************************* //
