/*--------------------------------*- C++ -*----------------------------------*\
| =========                 |                                                 |
| \\      /  F ield         | OpenFOAM: The Open Source CFD Toolbox           |
|  \\    /   O peration     | Version:  2.2.0                                 |
|   \\  /    A nd           | Web:      www.OpenFOAM.org                      |
|    \\/     M anipulation  |                                                 |
\*---------------------------------------------------------------------------*/
FoamFile
{
    version     2.0;
    format      ascii;
    class       volScalarField;
    location    "constant/polyMesh";
    object      Volumes;
}
// * * * * * * * * * * * * * * * * * * * * * * * * * * * * * * * * * * * * * //

dimensions      [0 3 0 0 0 0 0];

internalField   nonuniform List<scalar> 
327680
(
1.44653e-06
1.46338e-06
1.48023e-06
1.49708e-06
1.51394e-06
1.53079e-06
1.54764e-06
1.5645e-06
1.58135e-06
1.5982e-06
1.61505e-06
1.63191e-06
1.64876e-06
1.66561e-06
1.68247e-06
1.69932e-06
1.71617e-06
1.73302e-06
1.74988e-06
1.76673e-06
1.78358e-06
1.80043e-06
1.81729e-06
1.83414e-06
1.85099e-06
1.86785e-06
1.8847e-06
1.90155e-06
1.9184e-06
1.93526e-06
1.95211e-06
1.96896e-06
1.98581e-06
2.00267e-06
2.01952e-06
2.03637e-06
2.05323e-06
2.07008e-06
2.08693e-06
2.10378e-06
2.12064e-06
2.13749e-06
2.15434e-06
2.17119e-06
2.18805e-06
2.2049e-06
2.22175e-06
2.23861e-06
2.25546e-06
2.27231e-06
2.28916e-06
2.30602e-06
2.32287e-06
2.33972e-06
2.35658e-06
2.37343e-06
2.39028e-06
2.40713e-06
2.42399e-06
2.44084e-06
2.45769e-06
2.47454e-06
2.4914e-06
2.50825e-06
2.5251e-06
2.54196e-06
2.55881e-06
2.57566e-06
2.59251e-06
2.60937e-06
2.62622e-06
2.64307e-06
2.65992e-06
2.67678e-06
2.69363e-06
2.71048e-06
2.72734e-06
2.74419e-06
2.76104e-06
2.77789e-06
2.79475e-06
2.8116e-06
2.82845e-06
2.84531e-06
2.86216e-06
2.87901e-06
2.89586e-06
2.91272e-06
2.92957e-06
2.94642e-06
2.96327e-06
2.98013e-06
2.99698e-06
3.01383e-06
3.03069e-06
3.04754e-06
3.06439e-06
3.08124e-06
3.0981e-06
3.11495e-06
3.1318e-06
3.14865e-06
3.16551e-06
3.18236e-06
3.19921e-06
3.21607e-06
3.23292e-06
3.24977e-06
3.26662e-06
3.28348e-06
3.30033e-06
3.31718e-06
3.33403e-06
3.35089e-06
3.36774e-06
3.38459e-06
3.40145e-06
3.4183e-06
3.43515e-06
3.452e-06
3.46886e-06
3.48571e-06
3.50256e-06
3.51941e-06
3.53627e-06
3.55312e-06
3.56997e-06
3.58683e-06
3.60368e-06
3.62053e-06
3.63738e-06
3.65424e-06
3.67109e-06
3.68794e-06
3.7048e-06
3.72165e-06
3.7385e-06
3.75535e-06
3.77221e-06
3.78906e-06
3.80591e-06
3.82276e-06
3.83962e-06
3.85647e-06
3.87332e-06
3.89018e-06
3.90703e-06
3.92388e-06
3.94073e-06
3.95759e-06
3.97444e-06
3.99129e-06
4.00815e-06
4.025e-06
4.04185e-06
4.0587e-06
4.07556e-06
4.09241e-06
4.10926e-06
4.12611e-06
4.14297e-06
4.15982e-06
4.17667e-06
4.19353e-06
4.21038e-06
4.22723e-06
4.24408e-06
4.26094e-06
4.27779e-06
4.29464e-06
4.31149e-06
4.32835e-06
4.3452e-06
4.36205e-06
4.37891e-06
4.39576e-06
4.41261e-06
4.42946e-06
4.44632e-06
4.46317e-06
4.48002e-06
4.49687e-06
4.51373e-06
4.53058e-06
4.54743e-06
4.56429e-06
4.58114e-06
4.59799e-06
4.61484e-06
4.6317e-06
4.64855e-06
4.6654e-06
4.68225e-06
4.69911e-06
4.71596e-06
4.73281e-06
4.74967e-06
4.76652e-06
4.78337e-06
4.80022e-06
4.81708e-06
4.83393e-06
4.85078e-06
4.86764e-06
4.88449e-06
4.90134e-06
4.91819e-06
4.93505e-06
4.9519e-06
4.96875e-06
4.9856e-06
5.00246e-06
5.01931e-06
5.03616e-06
5.05302e-06
5.06987e-06
5.08672e-06
5.10357e-06
5.12043e-06
5.13728e-06
5.15413e-06
5.17099e-06
5.18784e-06
5.20469e-06
5.22154e-06
5.2384e-06
5.25525e-06
5.2721e-06
5.28895e-06
5.30581e-06
5.32266e-06
5.33951e-06
5.35636e-06
5.37322e-06
5.39007e-06
5.40692e-06
5.42378e-06
5.44063e-06
5.45748e-06
5.47433e-06
5.49119e-06
5.50804e-06
5.52489e-06
5.54175e-06
5.5586e-06
5.57545e-06
5.5923e-06
5.60916e-06
5.62601e-06
5.64286e-06
5.65971e-06
5.67657e-06
5.69342e-06
5.71027e-06
5.72713e-06
5.74398e-06
1.44653e-06
1.46338e-06
1.48023e-06
1.49708e-06
1.51394e-06
1.53079e-06
1.54764e-06
1.5645e-06
1.58135e-06
1.5982e-06
1.61505e-06
1.63191e-06
1.64876e-06
1.66561e-06
1.68247e-06
1.69932e-06
1.71617e-06
1.73302e-06
1.74988e-06
1.76673e-06
1.78358e-06
1.80043e-06
1.81729e-06
1.83414e-06
1.85099e-06
1.86785e-06
1.8847e-06
1.90155e-06
1.9184e-06
1.93526e-06
1.95211e-06
1.96896e-06
1.98581e-06
2.00267e-06
2.01952e-06
2.03637e-06
2.05323e-06
2.07008e-06
2.08693e-06
2.10378e-06
2.12064e-06
2.13749e-06
2.15434e-06
2.17119e-06
2.18805e-06
2.2049e-06
2.22175e-06
2.23861e-06
2.25546e-06
2.27231e-06
2.28916e-06
2.30602e-06
2.32287e-06
2.33972e-06
2.35658e-06
2.37343e-06
2.39028e-06
2.40713e-06
2.42399e-06
2.44084e-06
2.45769e-06
2.47454e-06
2.4914e-06
2.50825e-06
2.5251e-06
2.54196e-06
2.55881e-06
2.57566e-06
2.59251e-06
2.60937e-06
2.62622e-06
2.64307e-06
2.65992e-06
2.67678e-06
2.69363e-06
2.71048e-06
2.72734e-06
2.74419e-06
2.76104e-06
2.77789e-06
2.79475e-06
2.8116e-06
2.82845e-06
2.84531e-06
2.86216e-06
2.87901e-06
2.89586e-06
2.91272e-06
2.92957e-06
2.94642e-06
2.96327e-06
2.98013e-06
2.99698e-06
3.01383e-06
3.03069e-06
3.04754e-06
3.06439e-06
3.08124e-06
3.0981e-06
3.11495e-06
3.1318e-06
3.14865e-06
3.16551e-06
3.18236e-06
3.19921e-06
3.21607e-06
3.23292e-06
3.24977e-06
3.26662e-06
3.28348e-06
3.30033e-06
3.31718e-06
3.33403e-06
3.35089e-06
3.36774e-06
3.38459e-06
3.40145e-06
3.4183e-06
3.43515e-06
3.452e-06
3.46886e-06
3.48571e-06
3.50256e-06
3.51942e-06
3.53627e-06
3.55312e-06
3.56997e-06
3.58683e-06
3.60368e-06
3.62053e-06
3.63738e-06
3.65424e-06
3.67109e-06
3.68794e-06
3.7048e-06
3.72165e-06
3.7385e-06
3.75535e-06
3.77221e-06
3.78906e-06
3.80591e-06
3.82276e-06
3.83962e-06
3.85647e-06
3.87332e-06
3.89018e-06
3.90703e-06
3.92388e-06
3.94073e-06
3.95759e-06
3.97444e-06
3.99129e-06
4.00815e-06
4.025e-06
4.04185e-06
4.0587e-06
4.07556e-06
4.09241e-06
4.10926e-06
4.12611e-06
4.14297e-06
4.15982e-06
4.17667e-06
4.19353e-06
4.21038e-06
4.22723e-06
4.24408e-06
4.26094e-06
4.27779e-06
4.29464e-06
4.31149e-06
4.32835e-06
4.3452e-06
4.36205e-06
4.37891e-06
4.39576e-06
4.41261e-06
4.42946e-06
4.44632e-06
4.46317e-06
4.48002e-06
4.49687e-06
4.51373e-06
4.53058e-06
4.54743e-06
4.56429e-06
4.58114e-06
4.59799e-06
4.61484e-06
4.6317e-06
4.64855e-06
4.6654e-06
4.68226e-06
4.69911e-06
4.71596e-06
4.73281e-06
4.74967e-06
4.76652e-06
4.78337e-06
4.80022e-06
4.81708e-06
4.83393e-06
4.85078e-06
4.86764e-06
4.88449e-06
4.90134e-06
4.91819e-06
4.93505e-06
4.9519e-06
4.96875e-06
4.9856e-06
5.00246e-06
5.01931e-06
5.03616e-06
5.05302e-06
5.06987e-06
5.08672e-06
5.10357e-06
5.12043e-06
5.13728e-06
5.15413e-06
5.17099e-06
5.18784e-06
5.20469e-06
5.22154e-06
5.2384e-06
5.25525e-06
5.2721e-06
5.28895e-06
5.30581e-06
5.32266e-06
5.33951e-06
5.35637e-06
5.37322e-06
5.39007e-06
5.40692e-06
5.42378e-06
5.44063e-06
5.45748e-06
5.47433e-06
5.49119e-06
5.50804e-06
5.52489e-06
5.54175e-06
5.5586e-06
5.57545e-06
5.5923e-06
5.60916e-06
5.62601e-06
5.64286e-06
5.65971e-06
5.67657e-06
5.69342e-06
5.71027e-06
5.72713e-06
5.74398e-06
1.44653e-06
1.46338e-06
1.48023e-06
1.49708e-06
1.51394e-06
1.53079e-06
1.54764e-06
1.5645e-06
1.58135e-06
1.5982e-06
1.61505e-06
1.63191e-06
1.64876e-06
1.66561e-06
1.68247e-06
1.69932e-06
1.71617e-06
1.73302e-06
1.74988e-06
1.76673e-06
1.78358e-06
1.80043e-06
1.81729e-06
1.83414e-06
1.85099e-06
1.86785e-06
1.8847e-06
1.90155e-06
1.9184e-06
1.93526e-06
1.95211e-06
1.96896e-06
1.98581e-06
2.00267e-06
2.01952e-06
2.03637e-06
2.05323e-06
2.07008e-06
2.08693e-06
2.10378e-06
2.12064e-06
2.13749e-06
2.15434e-06
2.17119e-06
2.18805e-06
2.2049e-06
2.22175e-06
2.23861e-06
2.25546e-06
2.27231e-06
2.28916e-06
2.30602e-06
2.32287e-06
2.33972e-06
2.35658e-06
2.37343e-06
2.39028e-06
2.40713e-06
2.42399e-06
2.44084e-06
2.45769e-06
2.47454e-06
2.4914e-06
2.50825e-06
2.5251e-06
2.54196e-06
2.55881e-06
2.57566e-06
2.59251e-06
2.60937e-06
2.62622e-06
2.64307e-06
2.65992e-06
2.67678e-06
2.69363e-06
2.71048e-06
2.72734e-06
2.74419e-06
2.76104e-06
2.77789e-06
2.79475e-06
2.8116e-06
2.82845e-06
2.84531e-06
2.86216e-06
2.87901e-06
2.89586e-06
2.91272e-06
2.92957e-06
2.94642e-06
2.96327e-06
2.98013e-06
2.99698e-06
3.01383e-06
3.03069e-06
3.04754e-06
3.06439e-06
3.08124e-06
3.0981e-06
3.11495e-06
3.1318e-06
3.14865e-06
3.16551e-06
3.18236e-06
3.19921e-06
3.21607e-06
3.23292e-06
3.24977e-06
3.26662e-06
3.28348e-06
3.30033e-06
3.31718e-06
3.33403e-06
3.35089e-06
3.36774e-06
3.38459e-06
3.40145e-06
3.4183e-06
3.43515e-06
3.452e-06
3.46886e-06
3.48571e-06
3.50256e-06
3.51942e-06
3.53627e-06
3.55312e-06
3.56997e-06
3.58683e-06
3.60368e-06
3.62053e-06
3.63738e-06
3.65424e-06
3.67109e-06
3.68794e-06
3.7048e-06
3.72165e-06
3.7385e-06
3.75535e-06
3.77221e-06
3.78906e-06
3.80591e-06
3.82276e-06
3.83962e-06
3.85647e-06
3.87332e-06
3.89018e-06
3.90703e-06
3.92388e-06
3.94073e-06
3.95759e-06
3.97444e-06
3.99129e-06
4.00815e-06
4.025e-06
4.04185e-06
4.0587e-06
4.07556e-06
4.09241e-06
4.10926e-06
4.12611e-06
4.14297e-06
4.15982e-06
4.17667e-06
4.19352e-06
4.21038e-06
4.22723e-06
4.24408e-06
4.26094e-06
4.27779e-06
4.29464e-06
4.31149e-06
4.32835e-06
4.3452e-06
4.36205e-06
4.37891e-06
4.39576e-06
4.41261e-06
4.42946e-06
4.44632e-06
4.46317e-06
4.48002e-06
4.49687e-06
4.51373e-06
4.53058e-06
4.54743e-06
4.56429e-06
4.58114e-06
4.59799e-06
4.61484e-06
4.6317e-06
4.64855e-06
4.6654e-06
4.68226e-06
4.69911e-06
4.71596e-06
4.73281e-06
4.74967e-06
4.76652e-06
4.78337e-06
4.80022e-06
4.81708e-06
4.83393e-06
4.85078e-06
4.86763e-06
4.88449e-06
4.90134e-06
4.91819e-06
4.93505e-06
4.9519e-06
4.96875e-06
4.9856e-06
5.00246e-06
5.01931e-06
5.03616e-06
5.05302e-06
5.06987e-06
5.08672e-06
5.10357e-06
5.12043e-06
5.13728e-06
5.15413e-06
5.17099e-06
5.18784e-06
5.20469e-06
5.22154e-06
5.2384e-06
5.25525e-06
5.2721e-06
5.28895e-06
5.30581e-06
5.32266e-06
5.33951e-06
5.35637e-06
5.37322e-06
5.39007e-06
5.40692e-06
5.42378e-06
5.44063e-06
5.45748e-06
5.47433e-06
5.49119e-06
5.50804e-06
5.52489e-06
5.54175e-06
5.5586e-06
5.57545e-06
5.5923e-06
5.60916e-06
5.62601e-06
5.64286e-06
5.65971e-06
5.67657e-06
5.69342e-06
5.71027e-06
5.72713e-06
5.74398e-06
1.44653e-06
1.46338e-06
1.48023e-06
1.49708e-06
1.51394e-06
1.53079e-06
1.54764e-06
1.5645e-06
1.58135e-06
1.5982e-06
1.61505e-06
1.63191e-06
1.64876e-06
1.66561e-06
1.68247e-06
1.69932e-06
1.71617e-06
1.73302e-06
1.74988e-06
1.76673e-06
1.78358e-06
1.80043e-06
1.81729e-06
1.83414e-06
1.85099e-06
1.86785e-06
1.8847e-06
1.90155e-06
1.9184e-06
1.93526e-06
1.95211e-06
1.96896e-06
1.98581e-06
2.00267e-06
2.01952e-06
2.03637e-06
2.05323e-06
2.07008e-06
2.08693e-06
2.10378e-06
2.12064e-06
2.13749e-06
2.15434e-06
2.17119e-06
2.18805e-06
2.2049e-06
2.22175e-06
2.23861e-06
2.25546e-06
2.27231e-06
2.28916e-06
2.30602e-06
2.32287e-06
2.33972e-06
2.35658e-06
2.37343e-06
2.39028e-06
2.40713e-06
2.42399e-06
2.44084e-06
2.45769e-06
2.47454e-06
2.4914e-06
2.50825e-06
2.5251e-06
2.54196e-06
2.55881e-06
2.57566e-06
2.59251e-06
2.60937e-06
2.62622e-06
2.64307e-06
2.65992e-06
2.67678e-06
2.69363e-06
2.71048e-06
2.72734e-06
2.74419e-06
2.76104e-06
2.77789e-06
2.79475e-06
2.8116e-06
2.82845e-06
2.84531e-06
2.86216e-06
2.87901e-06
2.89586e-06
2.91272e-06
2.92957e-06
2.94642e-06
2.96327e-06
2.98013e-06
2.99698e-06
3.01383e-06
3.03069e-06
3.04754e-06
3.06439e-06
3.08124e-06
3.0981e-06
3.11495e-06
3.1318e-06
3.14865e-06
3.16551e-06
3.18236e-06
3.19921e-06
3.21607e-06
3.23292e-06
3.24977e-06
3.26662e-06
3.28348e-06
3.30033e-06
3.31718e-06
3.33404e-06
3.35089e-06
3.36774e-06
3.38459e-06
3.40145e-06
3.4183e-06
3.43515e-06
3.452e-06
3.46886e-06
3.48571e-06
3.50256e-06
3.51942e-06
3.53627e-06
3.55312e-06
3.56997e-06
3.58683e-06
3.60368e-06
3.62053e-06
3.63738e-06
3.65424e-06
3.67109e-06
3.68794e-06
3.7048e-06
3.72165e-06
3.7385e-06
3.75535e-06
3.77221e-06
3.78906e-06
3.80591e-06
3.82276e-06
3.83962e-06
3.85647e-06
3.87332e-06
3.89018e-06
3.90703e-06
3.92388e-06
3.94073e-06
3.95759e-06
3.97444e-06
3.99129e-06
4.00815e-06
4.025e-06
4.04185e-06
4.0587e-06
4.07556e-06
4.09241e-06
4.10926e-06
4.12611e-06
4.14297e-06
4.15982e-06
4.17667e-06
4.19353e-06
4.21038e-06
4.22723e-06
4.24408e-06
4.26094e-06
4.27779e-06
4.29464e-06
4.31149e-06
4.32835e-06
4.3452e-06
4.36205e-06
4.37891e-06
4.39576e-06
4.41261e-06
4.42946e-06
4.44632e-06
4.46317e-06
4.48002e-06
4.49688e-06
4.51373e-06
4.53058e-06
4.54743e-06
4.56429e-06
4.58114e-06
4.59799e-06
4.61484e-06
4.6317e-06
4.64855e-06
4.6654e-06
4.68226e-06
4.69911e-06
4.71596e-06
4.73281e-06
4.74967e-06
4.76652e-06
4.78337e-06
4.80022e-06
4.81708e-06
4.83393e-06
4.85078e-06
4.86764e-06
4.88449e-06
4.90134e-06
4.91819e-06
4.93505e-06
4.9519e-06
4.96875e-06
4.9856e-06
5.00246e-06
5.01931e-06
5.03616e-06
5.05302e-06
5.06987e-06
5.08672e-06
5.10357e-06
5.12043e-06
5.13728e-06
5.15413e-06
5.17099e-06
5.18784e-06
5.20469e-06
5.22154e-06
5.2384e-06
5.25525e-06
5.2721e-06
5.28895e-06
5.30581e-06
5.32266e-06
5.33951e-06
5.35637e-06
5.37322e-06
5.39007e-06
5.40692e-06
5.42378e-06
5.44063e-06
5.45748e-06
5.47433e-06
5.49119e-06
5.50804e-06
5.52489e-06
5.54175e-06
5.5586e-06
5.57545e-06
5.5923e-06
5.60916e-06
5.62601e-06
5.64286e-06
5.65972e-06
5.67657e-06
5.69342e-06
5.71027e-06
5.72713e-06
5.74398e-06
1.44653e-06
1.46338e-06
1.48023e-06
1.49708e-06
1.51394e-06
1.53079e-06
1.54764e-06
1.5645e-06
1.58135e-06
1.5982e-06
1.61505e-06
1.63191e-06
1.64876e-06
1.66561e-06
1.68247e-06
1.69932e-06
1.71617e-06
1.73302e-06
1.74988e-06
1.76673e-06
1.78358e-06
1.80043e-06
1.81729e-06
1.83414e-06
1.85099e-06
1.86785e-06
1.8847e-06
1.90155e-06
1.9184e-06
1.93526e-06
1.95211e-06
1.96896e-06
1.98581e-06
2.00267e-06
2.01952e-06
2.03637e-06
2.05323e-06
2.07008e-06
2.08693e-06
2.10378e-06
2.12064e-06
2.13749e-06
2.15434e-06
2.17119e-06
2.18805e-06
2.2049e-06
2.22175e-06
2.23861e-06
2.25546e-06
2.27231e-06
2.28916e-06
2.30602e-06
2.32287e-06
2.33972e-06
2.35658e-06
2.37343e-06
2.39028e-06
2.40713e-06
2.42399e-06
2.44084e-06
2.45769e-06
2.47454e-06
2.4914e-06
2.50825e-06
2.5251e-06
2.54196e-06
2.55881e-06
2.57566e-06
2.59251e-06
2.60937e-06
2.62622e-06
2.64307e-06
2.65992e-06
2.67678e-06
2.69363e-06
2.71048e-06
2.72734e-06
2.74419e-06
2.76104e-06
2.77789e-06
2.79475e-06
2.8116e-06
2.82845e-06
2.84531e-06
2.86216e-06
2.87901e-06
2.89586e-06
2.91272e-06
2.92957e-06
2.94642e-06
2.96327e-06
2.98013e-06
2.99698e-06
3.01383e-06
3.03069e-06
3.04754e-06
3.06439e-06
3.08124e-06
3.0981e-06
3.11495e-06
3.1318e-06
3.14865e-06
3.16551e-06
3.18236e-06
3.19921e-06
3.21607e-06
3.23292e-06
3.24977e-06
3.26662e-06
3.28348e-06
3.30033e-06
3.31718e-06
3.33403e-06
3.35089e-06
3.36774e-06
3.38459e-06
3.40145e-06
3.4183e-06
3.43515e-06
3.452e-06
3.46886e-06
3.48571e-06
3.50256e-06
3.51942e-06
3.53627e-06
3.55312e-06
3.56997e-06
3.58683e-06
3.60368e-06
3.62053e-06
3.63738e-06
3.65424e-06
3.67109e-06
3.68794e-06
3.7048e-06
3.72165e-06
3.7385e-06
3.75535e-06
3.77221e-06
3.78906e-06
3.80591e-06
3.82277e-06
3.83962e-06
3.85647e-06
3.87332e-06
3.89018e-06
3.90703e-06
3.92388e-06
3.94073e-06
3.95759e-06
3.97444e-06
3.99129e-06
4.00815e-06
4.025e-06
4.04185e-06
4.0587e-06
4.07556e-06
4.09241e-06
4.10926e-06
4.12611e-06
4.14297e-06
4.15982e-06
4.17667e-06
4.19353e-06
4.21038e-06
4.22723e-06
4.24408e-06
4.26094e-06
4.27779e-06
4.29464e-06
4.31149e-06
4.32835e-06
4.3452e-06
4.36205e-06
4.37891e-06
4.39576e-06
4.41261e-06
4.42946e-06
4.44632e-06
4.46317e-06
4.48002e-06
4.49687e-06
4.51373e-06
4.53058e-06
4.54743e-06
4.56429e-06
4.58114e-06
4.59799e-06
4.61484e-06
4.6317e-06
4.64855e-06
4.6654e-06
4.68226e-06
4.69911e-06
4.71596e-06
4.73281e-06
4.74967e-06
4.76652e-06
4.78337e-06
4.80022e-06
4.81708e-06
4.83393e-06
4.85078e-06
4.86764e-06
4.88449e-06
4.90134e-06
4.91819e-06
4.93505e-06
4.9519e-06
4.96875e-06
4.98561e-06
5.00246e-06
5.01931e-06
5.03616e-06
5.05302e-06
5.06987e-06
5.08672e-06
5.10357e-06
5.12043e-06
5.13728e-06
5.15413e-06
5.17098e-06
5.18784e-06
5.20469e-06
5.22154e-06
5.2384e-06
5.25525e-06
5.2721e-06
5.28895e-06
5.30581e-06
5.32266e-06
5.33951e-06
5.35637e-06
5.37322e-06
5.39007e-06
5.40692e-06
5.42378e-06
5.44063e-06
5.45748e-06
5.47433e-06
5.49119e-06
5.50804e-06
5.52489e-06
5.54175e-06
5.5586e-06
5.57545e-06
5.5923e-06
5.60916e-06
5.62601e-06
5.64286e-06
5.65971e-06
5.67657e-06
5.69342e-06
5.71027e-06
5.72713e-06
5.74398e-06
1.44653e-06
1.46338e-06
1.48023e-06
1.49708e-06
1.51394e-06
1.53079e-06
1.54764e-06
1.5645e-06
1.58135e-06
1.5982e-06
1.61505e-06
1.63191e-06
1.64876e-06
1.66561e-06
1.68247e-06
1.69932e-06
1.71617e-06
1.73302e-06
1.74988e-06
1.76673e-06
1.78358e-06
1.80043e-06
1.81729e-06
1.83414e-06
1.85099e-06
1.86785e-06
1.8847e-06
1.90155e-06
1.9184e-06
1.93526e-06
1.95211e-06
1.96896e-06
1.98581e-06
2.00267e-06
2.01952e-06
2.03637e-06
2.05323e-06
2.07008e-06
2.08693e-06
2.10378e-06
2.12064e-06
2.13749e-06
2.15434e-06
2.17119e-06
2.18805e-06
2.2049e-06
2.22175e-06
2.23861e-06
2.25546e-06
2.27231e-06
2.28916e-06
2.30602e-06
2.32287e-06
2.33972e-06
2.35658e-06
2.37343e-06
2.39028e-06
2.40713e-06
2.42399e-06
2.44084e-06
2.45769e-06
2.47454e-06
2.4914e-06
2.50825e-06
2.5251e-06
2.54196e-06
2.55881e-06
2.57566e-06
2.59251e-06
2.60937e-06
2.62622e-06
2.64307e-06
2.65992e-06
2.67678e-06
2.69363e-06
2.71048e-06
2.72734e-06
2.74419e-06
2.76104e-06
2.77789e-06
2.79475e-06
2.8116e-06
2.82845e-06
2.84531e-06
2.86216e-06
2.87901e-06
2.89586e-06
2.91272e-06
2.92957e-06
2.94642e-06
2.96327e-06
2.98013e-06
2.99698e-06
3.01383e-06
3.03069e-06
3.04754e-06
3.06439e-06
3.08124e-06
3.0981e-06
3.11495e-06
3.1318e-06
3.14865e-06
3.16551e-06
3.18236e-06
3.19921e-06
3.21607e-06
3.23292e-06
3.24977e-06
3.26662e-06
3.28348e-06
3.30033e-06
3.31718e-06
3.33403e-06
3.35089e-06
3.36774e-06
3.38459e-06
3.40145e-06
3.4183e-06
3.43515e-06
3.452e-06
3.46886e-06
3.48571e-06
3.50256e-06
3.51942e-06
3.53627e-06
3.55312e-06
3.56997e-06
3.58683e-06
3.60368e-06
3.62053e-06
3.63738e-06
3.65424e-06
3.67109e-06
3.68794e-06
3.7048e-06
3.72165e-06
3.7385e-06
3.75535e-06
3.77221e-06
3.78906e-06
3.80591e-06
3.82276e-06
3.83962e-06
3.85647e-06
3.87332e-06
3.89018e-06
3.90703e-06
3.92388e-06
3.94073e-06
3.95759e-06
3.97444e-06
3.99129e-06
4.00814e-06
4.025e-06
4.04185e-06
4.0587e-06
4.07556e-06
4.09241e-06
4.10926e-06
4.12611e-06
4.14297e-06
4.15982e-06
4.17667e-06
4.19353e-06
4.21038e-06
4.22723e-06
4.24408e-06
4.26094e-06
4.27779e-06
4.29464e-06
4.31149e-06
4.32835e-06
4.3452e-06
4.36205e-06
4.37891e-06
4.39576e-06
4.41261e-06
4.42946e-06
4.44632e-06
4.46317e-06
4.48002e-06
4.49687e-06
4.51373e-06
4.53058e-06
4.54743e-06
4.56429e-06
4.58114e-06
4.59799e-06
4.61484e-06
4.6317e-06
4.64855e-06
4.6654e-06
4.68226e-06
4.69911e-06
4.71596e-06
4.73281e-06
4.74967e-06
4.76652e-06
4.78337e-06
4.80022e-06
4.81708e-06
4.83393e-06
4.85078e-06
4.86764e-06
4.88449e-06
4.90134e-06
4.91819e-06
4.93505e-06
4.9519e-06
4.96875e-06
4.9856e-06
5.00246e-06
5.01931e-06
5.03616e-06
5.05302e-06
5.06987e-06
5.08672e-06
5.10357e-06
5.12043e-06
5.13728e-06
5.15413e-06
5.17098e-06
5.18784e-06
5.20469e-06
5.22154e-06
5.2384e-06
5.25525e-06
5.2721e-06
5.28895e-06
5.30581e-06
5.32266e-06
5.33951e-06
5.35637e-06
5.37322e-06
5.39007e-06
5.40692e-06
5.42378e-06
5.44063e-06
5.45748e-06
5.47433e-06
5.49119e-06
5.50804e-06
5.52489e-06
5.54175e-06
5.5586e-06
5.57545e-06
5.5923e-06
5.60916e-06
5.62601e-06
5.64286e-06
5.65971e-06
5.67657e-06
5.69342e-06
5.71027e-06
5.72713e-06
5.74398e-06
1.44653e-06
1.46338e-06
1.48023e-06
1.49708e-06
1.51394e-06
1.53079e-06
1.54764e-06
1.5645e-06
1.58135e-06
1.5982e-06
1.61505e-06
1.63191e-06
1.64876e-06
1.66561e-06
1.68247e-06
1.69932e-06
1.71617e-06
1.73302e-06
1.74988e-06
1.76673e-06
1.78358e-06
1.80043e-06
1.81729e-06
1.83414e-06
1.85099e-06
1.86785e-06
1.8847e-06
1.90155e-06
1.9184e-06
1.93526e-06
1.95211e-06
1.96896e-06
1.98581e-06
2.00267e-06
2.01952e-06
2.03637e-06
2.05323e-06
2.07008e-06
2.08693e-06
2.10378e-06
2.12064e-06
2.13749e-06
2.15434e-06
2.17119e-06
2.18805e-06
2.2049e-06
2.22175e-06
2.23861e-06
2.25546e-06
2.27231e-06
2.28916e-06
2.30602e-06
2.32287e-06
2.33972e-06
2.35658e-06
2.37343e-06
2.39028e-06
2.40713e-06
2.42399e-06
2.44084e-06
2.45769e-06
2.47454e-06
2.4914e-06
2.50825e-06
2.5251e-06
2.54196e-06
2.55881e-06
2.57566e-06
2.59251e-06
2.60937e-06
2.62622e-06
2.64307e-06
2.65992e-06
2.67678e-06
2.69363e-06
2.71048e-06
2.72734e-06
2.74419e-06
2.76104e-06
2.77789e-06
2.79475e-06
2.8116e-06
2.82845e-06
2.84531e-06
2.86216e-06
2.87901e-06
2.89586e-06
2.91272e-06
2.92957e-06
2.94642e-06
2.96327e-06
2.98013e-06
2.99698e-06
3.01383e-06
3.03069e-06
3.04754e-06
3.06439e-06
3.08124e-06
3.0981e-06
3.11495e-06
3.1318e-06
3.14865e-06
3.16551e-06
3.18236e-06
3.19921e-06
3.21607e-06
3.23292e-06
3.24977e-06
3.26662e-06
3.28348e-06
3.30033e-06
3.31718e-06
3.33403e-06
3.35089e-06
3.36774e-06
3.38459e-06
3.40145e-06
3.4183e-06
3.43515e-06
3.452e-06
3.46886e-06
3.48571e-06
3.50256e-06
3.51942e-06
3.53627e-06
3.55312e-06
3.56997e-06
3.58683e-06
3.60368e-06
3.62053e-06
3.63738e-06
3.65424e-06
3.67109e-06
3.68794e-06
3.7048e-06
3.72165e-06
3.7385e-06
3.75535e-06
3.77221e-06
3.78906e-06
3.80591e-06
3.82276e-06
3.83962e-06
3.85647e-06
3.87332e-06
3.89018e-06
3.90703e-06
3.92388e-06
3.94073e-06
3.95759e-06
3.97444e-06
3.99129e-06
4.00814e-06
4.025e-06
4.04185e-06
4.0587e-06
4.07556e-06
4.09241e-06
4.10926e-06
4.12611e-06
4.14297e-06
4.15982e-06
4.17667e-06
4.19353e-06
4.21038e-06
4.22723e-06
4.24408e-06
4.26094e-06
4.27779e-06
4.29464e-06
4.31149e-06
4.32835e-06
4.3452e-06
4.36205e-06
4.37891e-06
4.39576e-06
4.41261e-06
4.42946e-06
4.44632e-06
4.46317e-06
4.48002e-06
4.49688e-06
4.51373e-06
4.53058e-06
4.54743e-06
4.56429e-06
4.58114e-06
4.59799e-06
4.61484e-06
4.6317e-06
4.64855e-06
4.6654e-06
4.68226e-06
4.69911e-06
4.71596e-06
4.73281e-06
4.74967e-06
4.76652e-06
4.78337e-06
4.80022e-06
4.81708e-06
4.83393e-06
4.85078e-06
4.86764e-06
4.88449e-06
4.90134e-06
4.91819e-06
4.93505e-06
4.9519e-06
4.96875e-06
4.9856e-06
5.00246e-06
5.01931e-06
5.03616e-06
5.05302e-06
5.06987e-06
5.08672e-06
5.10357e-06
5.12043e-06
5.13728e-06
5.15413e-06
5.17098e-06
5.18784e-06
5.20469e-06
5.22154e-06
5.2384e-06
5.25525e-06
5.2721e-06
5.28895e-06
5.30581e-06
5.32266e-06
5.33951e-06
5.35637e-06
5.37322e-06
5.39007e-06
5.40692e-06
5.42378e-06
5.44063e-06
5.45748e-06
5.47433e-06
5.49119e-06
5.50804e-06
5.52489e-06
5.54175e-06
5.5586e-06
5.57545e-06
5.5923e-06
5.60916e-06
5.62601e-06
5.64286e-06
5.65972e-06
5.67657e-06
5.69342e-06
5.71027e-06
5.72713e-06
5.74398e-06
1.44653e-06
1.46338e-06
1.48023e-06
1.49708e-06
1.51394e-06
1.53079e-06
1.54764e-06
1.5645e-06
1.58135e-06
1.5982e-06
1.61505e-06
1.63191e-06
1.64876e-06
1.66561e-06
1.68247e-06
1.69932e-06
1.71617e-06
1.73302e-06
1.74988e-06
1.76673e-06
1.78358e-06
1.80043e-06
1.81729e-06
1.83414e-06
1.85099e-06
1.86785e-06
1.8847e-06
1.90155e-06
1.9184e-06
1.93526e-06
1.95211e-06
1.96896e-06
1.98581e-06
2.00267e-06
2.01952e-06
2.03637e-06
2.05323e-06
2.07008e-06
2.08693e-06
2.10378e-06
2.12064e-06
2.13749e-06
2.15434e-06
2.17119e-06
2.18805e-06
2.2049e-06
2.22175e-06
2.23861e-06
2.25546e-06
2.27231e-06
2.28916e-06
2.30602e-06
2.32287e-06
2.33972e-06
2.35658e-06
2.37343e-06
2.39028e-06
2.40713e-06
2.42399e-06
2.44084e-06
2.45769e-06
2.47454e-06
2.4914e-06
2.50825e-06
2.5251e-06
2.54196e-06
2.55881e-06
2.57566e-06
2.59251e-06
2.60937e-06
2.62622e-06
2.64307e-06
2.65992e-06
2.67678e-06
2.69363e-06
2.71048e-06
2.72734e-06
2.74419e-06
2.76104e-06
2.77789e-06
2.79475e-06
2.8116e-06
2.82845e-06
2.84531e-06
2.86216e-06
2.87901e-06
2.89586e-06
2.91272e-06
2.92957e-06
2.94642e-06
2.96327e-06
2.98013e-06
2.99698e-06
3.01383e-06
3.03069e-06
3.04754e-06
3.06439e-06
3.08124e-06
3.0981e-06
3.11495e-06
3.1318e-06
3.14865e-06
3.16551e-06
3.18236e-06
3.19921e-06
3.21607e-06
3.23292e-06
3.24977e-06
3.26662e-06
3.28348e-06
3.30033e-06
3.31718e-06
3.33403e-06
3.35089e-06
3.36774e-06
3.38459e-06
3.40145e-06
3.4183e-06
3.43515e-06
3.452e-06
3.46886e-06
3.48571e-06
3.50256e-06
3.51941e-06
3.53627e-06
3.55312e-06
3.56997e-06
3.58683e-06
3.60368e-06
3.62053e-06
3.63738e-06
3.65424e-06
3.67109e-06
3.68794e-06
3.7048e-06
3.72165e-06
3.7385e-06
3.75535e-06
3.77221e-06
3.78906e-06
3.80591e-06
3.82276e-06
3.83962e-06
3.85647e-06
3.87332e-06
3.89018e-06
3.90703e-06
3.92388e-06
3.94073e-06
3.95759e-06
3.97444e-06
3.99129e-06
4.00814e-06
4.025e-06
4.04185e-06
4.0587e-06
4.07556e-06
4.09241e-06
4.10926e-06
4.12611e-06
4.14297e-06
4.15982e-06
4.17667e-06
4.19353e-06
4.21038e-06
4.22723e-06
4.24408e-06
4.26094e-06
4.27779e-06
4.29464e-06
4.31149e-06
4.32835e-06
4.3452e-06
4.36205e-06
4.37891e-06
4.39576e-06
4.41261e-06
4.42946e-06
4.44632e-06
4.46317e-06
4.48002e-06
4.49688e-06
4.51373e-06
4.53058e-06
4.54743e-06
4.56429e-06
4.58114e-06
4.59799e-06
4.61484e-06
4.6317e-06
4.64855e-06
4.6654e-06
4.68226e-06
4.69911e-06
4.71596e-06
4.73281e-06
4.74967e-06
4.76652e-06
4.78337e-06
4.80022e-06
4.81708e-06
4.83393e-06
4.85078e-06
4.86764e-06
4.88449e-06
4.90134e-06
4.91819e-06
4.93505e-06
4.9519e-06
4.96875e-06
4.9856e-06
5.00246e-06
5.01931e-06
5.03616e-06
5.05302e-06
5.06987e-06
5.08672e-06
5.10357e-06
5.12043e-06
5.13728e-06
5.15413e-06
5.17098e-06
5.18784e-06
5.20469e-06
5.22154e-06
5.2384e-06
5.25525e-06
5.2721e-06
5.28895e-06
5.30581e-06
5.32266e-06
5.33951e-06
5.35637e-06
5.37322e-06
5.39007e-06
5.40692e-06
5.42378e-06
5.44063e-06
5.45748e-06
5.47433e-06
5.49119e-06
5.50804e-06
5.52489e-06
5.54175e-06
5.5586e-06
5.57545e-06
5.5923e-06
5.60916e-06
5.62601e-06
5.64286e-06
5.65972e-06
5.67657e-06
5.69342e-06
5.71027e-06
5.72713e-06
5.74398e-06
1.44653e-06
1.46338e-06
1.48023e-06
1.49708e-06
1.51394e-06
1.53079e-06
1.54764e-06
1.5645e-06
1.58135e-06
1.5982e-06
1.61505e-06
1.63191e-06
1.64876e-06
1.66561e-06
1.68247e-06
1.69932e-06
1.71617e-06
1.73302e-06
1.74988e-06
1.76673e-06
1.78358e-06
1.80043e-06
1.81729e-06
1.83414e-06
1.85099e-06
1.86785e-06
1.8847e-06
1.90155e-06
1.9184e-06
1.93526e-06
1.95211e-06
1.96896e-06
1.98581e-06
2.00267e-06
2.01952e-06
2.03637e-06
2.05323e-06
2.07008e-06
2.08693e-06
2.10378e-06
2.12064e-06
2.13749e-06
2.15434e-06
2.17119e-06
2.18805e-06
2.2049e-06
2.22175e-06
2.23861e-06
2.25546e-06
2.27231e-06
2.28916e-06
2.30602e-06
2.32287e-06
2.33972e-06
2.35658e-06
2.37343e-06
2.39028e-06
2.40713e-06
2.42399e-06
2.44084e-06
2.45769e-06
2.47454e-06
2.4914e-06
2.50825e-06
2.5251e-06
2.54196e-06
2.55881e-06
2.57566e-06
2.59251e-06
2.60937e-06
2.62622e-06
2.64307e-06
2.65992e-06
2.67678e-06
2.69363e-06
2.71048e-06
2.72734e-06
2.74419e-06
2.76104e-06
2.77789e-06
2.79475e-06
2.8116e-06
2.82845e-06
2.84531e-06
2.86216e-06
2.87901e-06
2.89586e-06
2.91272e-06
2.92957e-06
2.94642e-06
2.96327e-06
2.98013e-06
2.99698e-06
3.01383e-06
3.03069e-06
3.04754e-06
3.06439e-06
3.08124e-06
3.0981e-06
3.11495e-06
3.1318e-06
3.14865e-06
3.16551e-06
3.18236e-06
3.19921e-06
3.21607e-06
3.23292e-06
3.24977e-06
3.26662e-06
3.28348e-06
3.30033e-06
3.31718e-06
3.33403e-06
3.35089e-06
3.36774e-06
3.38459e-06
3.40145e-06
3.4183e-06
3.43515e-06
3.452e-06
3.46886e-06
3.48571e-06
3.50256e-06
3.51941e-06
3.53627e-06
3.55312e-06
3.56997e-06
3.58683e-06
3.60368e-06
3.62053e-06
3.63738e-06
3.65424e-06
3.67109e-06
3.68794e-06
3.7048e-06
3.72165e-06
3.7385e-06
3.75535e-06
3.77221e-06
3.78906e-06
3.80591e-06
3.82276e-06
3.83962e-06
3.85647e-06
3.87332e-06
3.89018e-06
3.90703e-06
3.92388e-06
3.94073e-06
3.95759e-06
3.97444e-06
3.99129e-06
4.00815e-06
4.025e-06
4.04185e-06
4.0587e-06
4.07556e-06
4.09241e-06
4.10926e-06
4.12611e-06
4.14297e-06
4.15982e-06
4.17667e-06
4.19353e-06
4.21038e-06
4.22723e-06
4.24408e-06
4.26094e-06
4.27779e-06
4.29464e-06
4.31149e-06
4.32835e-06
4.3452e-06
4.36205e-06
4.37891e-06
4.39576e-06
4.41261e-06
4.42946e-06
4.44632e-06
4.46317e-06
4.48002e-06
4.49687e-06
4.51373e-06
4.53058e-06
4.54743e-06
4.56429e-06
4.58114e-06
4.59799e-06
4.61484e-06
4.6317e-06
4.64855e-06
4.6654e-06
4.68226e-06
4.69911e-06
4.71596e-06
4.73281e-06
4.74967e-06
4.76652e-06
4.78337e-06
4.80022e-06
4.81708e-06
4.83393e-06
4.85078e-06
4.86764e-06
4.88449e-06
4.90134e-06
4.91819e-06
4.93505e-06
4.9519e-06
4.96875e-06
4.9856e-06
5.00246e-06
5.01931e-06
5.03616e-06
5.05302e-06
5.06987e-06
5.08672e-06
5.10357e-06
5.12043e-06
5.13728e-06
5.15413e-06
5.17099e-06
5.18784e-06
5.20469e-06
5.22154e-06
5.2384e-06
5.25525e-06
5.2721e-06
5.28895e-06
5.30581e-06
5.32266e-06
5.33951e-06
5.35637e-06
5.37322e-06
5.39007e-06
5.40692e-06
5.42378e-06
5.44063e-06
5.45748e-06
5.47433e-06
5.49119e-06
5.50804e-06
5.52489e-06
5.54175e-06
5.5586e-06
5.57545e-06
5.5923e-06
5.60916e-06
5.62601e-06
5.64286e-06
5.65971e-06
5.67657e-06
5.69342e-06
5.71027e-06
5.72713e-06
5.74398e-06
1.44653e-06
1.46338e-06
1.48023e-06
1.49708e-06
1.51394e-06
1.53079e-06
1.54764e-06
1.5645e-06
1.58135e-06
1.5982e-06
1.61505e-06
1.63191e-06
1.64876e-06
1.66561e-06
1.68247e-06
1.69932e-06
1.71617e-06
1.73302e-06
1.74988e-06
1.76673e-06
1.78358e-06
1.80043e-06
1.81729e-06
1.83414e-06
1.85099e-06
1.86785e-06
1.8847e-06
1.90155e-06
1.9184e-06
1.93526e-06
1.95211e-06
1.96896e-06
1.98581e-06
2.00267e-06
2.01952e-06
2.03637e-06
2.05323e-06
2.07008e-06
2.08693e-06
2.10378e-06
2.12064e-06
2.13749e-06
2.15434e-06
2.1712e-06
2.18805e-06
2.2049e-06
2.22175e-06
2.23861e-06
2.25546e-06
2.27231e-06
2.28916e-06
2.30602e-06
2.32287e-06
2.33972e-06
2.35658e-06
2.37343e-06
2.39028e-06
2.40713e-06
2.42399e-06
2.44084e-06
2.45769e-06
2.47454e-06
2.4914e-06
2.50825e-06
2.5251e-06
2.54196e-06
2.55881e-06
2.57566e-06
2.59251e-06
2.60937e-06
2.62622e-06
2.64307e-06
2.65992e-06
2.67678e-06
2.69363e-06
2.71048e-06
2.72734e-06
2.74419e-06
2.76104e-06
2.77789e-06
2.79475e-06
2.8116e-06
2.82845e-06
2.84531e-06
2.86216e-06
2.87901e-06
2.89586e-06
2.91272e-06
2.92957e-06
2.94642e-06
2.96327e-06
2.98013e-06
2.99698e-06
3.01383e-06
3.03069e-06
3.04754e-06
3.06439e-06
3.08124e-06
3.0981e-06
3.11495e-06
3.1318e-06
3.14865e-06
3.16551e-06
3.18236e-06
3.19921e-06
3.21607e-06
3.23292e-06
3.24977e-06
3.26662e-06
3.28348e-06
3.30033e-06
3.31718e-06
3.33403e-06
3.35089e-06
3.36774e-06
3.38459e-06
3.40145e-06
3.4183e-06
3.43515e-06
3.452e-06
3.46886e-06
3.48571e-06
3.50256e-06
3.51942e-06
3.53627e-06
3.55312e-06
3.56997e-06
3.58683e-06
3.60368e-06
3.62053e-06
3.63738e-06
3.65424e-06
3.67109e-06
3.68794e-06
3.7048e-06
3.72165e-06
3.7385e-06
3.75535e-06
3.77221e-06
3.78906e-06
3.80591e-06
3.82276e-06
3.83962e-06
3.85647e-06