/*--------------------------------*- C++ -*----------------------------------*\
| =========                 |                                                 |
| \\      /  F ield         | OpenFOAM: The Open Source CFD Toolbox           |
|  \\    /   O peration     | Version:  2.2.0                                 |
|   \\  /    A nd           | Web:      www.OpenFOAM.org                      |
|    \\/     M anipulation  |                                                 |
\*---------------------------------------------------------------------------*/
FoamFile
{
    version     2.0;
    format      ascii;
    class       volScalarField;
    location    "constant/polyMesh";
    object      Volumes;
}
// * * * * * * * * * * * * * * * * * * * * * * * * * * * * * * * * * * * * * //

dimensions      [0 3 0 0 0 0 0];

internalField   nonuniform List<scalar> 
80
(
0.00796684
0.0123124
0.0166579
0.0210035
0.00796684
0.0123124
0.016658
0.0210035
0.00796684
0.0123124
0.016658
0.0210035
0.00796684
0.0123124
0.016658
0.0210035
0.00796684
0.0123124
0.0166579
0.0210035
0.00796684
0.0123124
0.0166579
0.0210035
0.00796684
0.0123124
0.016658
0.0210035
0.00796684
0.0123124
0.016658
0.0210035
0.00796684
0.0123124
0.016658
0.0210035
0.00796684
0.0123124
0.0166579
0.0210035
0.00796684
0.0123124
0.0166579
0.0210035
0.00796684
0.0123124
0.016658
0.0210035
0.00796684
0.0123124
0.016658
0.0210035
0.00796684
0.0123124
0.016658
0.0210035
0.00796684
0.0123124
0.0166579
0.0210035
0.00796684
0.0123124
0.0166579
0.0210035
0.00796684
0.0123124
0.016658
0.0210035
0.00796684
0.0123124
0.016658
0.0210035
0.00796684
0.0123124
0.016658
0.0210035
0.00796684
0.0123124
0.0166579
0.0210035
)
;

boundaryField
{
    up
    {
        type            calculated;
        value           uniform 0;
    }
    hole
    {
        type            calculated;
        value           uniform 0;
    }
    frontAndBack
    {
        type            empty;
    }
}


// ************************************************************************* //
